                                  SEAWAT Version 4
      U.S. GEOLOGICAL SURVEY MODULAR FINITE-DIFFERENCE GROUND-WATER FLOW MODEL
                           VERSION 4.00.05 10/19/2012


 This model run combines GLOBAL and LIST output into this single file.

 GLOBAL LISTING FILE: testversie_1_axi.list
                         UNIT    2

 OPENING testversie_1_axi.dis
 FILE TYPE:DIS   UNIT   11   STATUS:OLD    
 FORMAT:FORMATTED              ACCESS:SEQUENTIAL          

 OPENING testversie_1_axi.bas
 FILE TYPE:BAS6   UNIT   13   STATUS:OLD    
 FORMAT:FORMATTED              ACCESS:SEQUENTIAL          

 OPENING testversie_1_axi.wel
 FILE TYPE:WEL   UNIT   20   STATUS:OLD    
 FORMAT:FORMATTED              ACCESS:SEQUENTIAL          

 OPENING testversie_1_axi.lpf
 FILE TYPE:LPF   UNIT   15   STATUS:OLD    
 FORMAT:FORMATTED              ACCESS:SEQUENTIAL          

 OPENING testversie_1_axi.oc
 FILE TYPE:OC   UNIT   14   STATUS:OLD    
 FORMAT:FORMATTED              ACCESS:SEQUENTIAL          

 OPENING testversie_1_axi.pcg
 FILE TYPE:PCG   UNIT   27   STATUS:OLD    
 FORMAT:FORMATTED              ACCESS:SEQUENTIAL          

 OPENING testversie_1_axi.adv
 FILE TYPE:ADV   UNIT   32   STATUS:OLD    
 FORMAT:FORMATTED              ACCESS:SEQUENTIAL          

 OPENING testversie_1_axi.btn
 FILE TYPE:BTN   UNIT   31   STATUS:OLD    
 FORMAT:FORMATTED              ACCESS:SEQUENTIAL          

 OPENING testversie_1_axi.dsp
 FILE TYPE:DSP   UNIT   33   STATUS:OLD    
 FORMAT:FORMATTED              ACCESS:SEQUENTIAL          

 OPENING testversie_1_axi.rct
 FILE TYPE:RCT   UNIT   36   STATUS:OLD    
 FORMAT:FORMATTED              ACCESS:SEQUENTIAL          

 OPENING testversie_1_axi.gcg
 FILE TYPE:GCG   UNIT   35   STATUS:OLD    
 FORMAT:FORMATTED              ACCESS:SEQUENTIAL          

 OPENING testversie_1_axi.ssm
 FILE TYPE:SSM   UNIT   34   STATUS:OLD    
 FORMAT:FORMATTED              ACCESS:SEQUENTIAL          

 OPENING testversie_1_axi.vdf
 FILE TYPE:VDF   UNIT   37   STATUS:OLD    
 FORMAT:FORMATTED              ACCESS:SEQUENTIAL          

 OPENING testversie_1_axi.vsc
 FILE TYPE:VSC   UNIT   38   STATUS:OLD    
 FORMAT:FORMATTED              ACCESS:SEQUENTIAL          

 OPENING testversie_1_axi.cbc
 FILE TYPE:DATA(BINARY)   UNIT   53   STATUS:REPLACE
 FORMAT:BINARY                 ACCESS:SEQUENTIAL          

 OPENING testversie_1_axi.hds
 FILE TYPE:DATA(BINARY)   UNIT   51   STATUS:REPLACE
 FORMAT:BINARY                 ACCESS:SEQUENTIAL          

 THE FREE FORMAT OPTION HAS BEEN SELECTED

 DISCRETIZATION INPUT DATA READ FROM UNIT   11
 # DIS package for SEAWAT generated by Flopy 3.4.3
   10 LAYERS         3 ROWS        35 COLUMNS
    1 STRESS PERIOD(S) IN SIMULATION
 MODEL TIME UNIT IS DAYS
 MODEL LENGTH UNIT IS METERS
  ----- 
 | M T | ## BTN for MT3DMS, generated by Flopy.                                          
 | 3 D | ##                                                                              
  ----- 
 THE TRANSPORT MODEL CONSISTS OF    10 LAYER(S)    3 ROW(S)   35 COLUMN(S)
 NUMBER OF STRESS PERIOD(S) FOR TRANSPORT SIMULATION =    1
 NUMBER OF ALL COMPONENTS INCLUDED IN SIMULATION =    1
 NUMBER OF MOBILE COMPONENTS INCLUDED IN SIMULATION =    1
 UNIT FOR TIME IS D   ;  UNIT FOR LENGTH IS M   ;  UNIT FOR MASS IS KG  
 OPTIONAL PACKAGES INCLUDED IN CURRENT SIMULATION:
  o ADV   ON UNIT 32
  o DSP   ON UNIT 33
  o SSM   ON UNIT 34
  o RCT   ON UNIT 36
  o GCG   ON UNIT 35


 VDF -- VARIABLE DENSITY FLOW, VERSION 1, 2/13/2004
         INPUT READ FROM UNIT 37

 COUPLING BETWEEN FLOW AND TRANSPORT IS EXPLICIT
 VARIABLE-DENSITY WATER-TABLE CORRECTIONS NOT ADDED
 MT3DMS SPECIES USED IN EQUATION OF STATE FOR FLUID DENSITY:         -1
 AN UPSTREAM-WEIGHTED ALGORITHM IS USED TO CALCULATE FLUID DENSITY TERMS THAT CONSERVE MASS
 DENSITY EQUATION OF STATE
 RHO =     999.923    
  + -.7730E-01 * ( CONC(   1) -  12.00     )
  + 0.4500E-02 * ( PRESS HEAD -  0.000     )



 FIRSTDT SPECIFIED BY USER IN THE VDF FILE IS:   0.1000000E-02

 VSC -- VISCOSITY PACKAGE, VERSION 1, 8/15/2006
         INPUT READ FROM UNIT 38

 VISCOSITY EQUATION OF STATE
 MU =   0.12E-02
  +   0.19E-05 * ( CONC(    1) -    0.0     )
 OPTION TO REPRESENT NONLINEAR TEMPERATURE/VISCOSITY RELATION IS    1
 MT3DMS SPECIES REPRESENTING TEMPERATURE IS    1
NUMBER OF REQUIRED VISCOSITY COEFFICIENTS IS    4
COEFFICIENT VALUES ARE:     0.23900E-04    10.0000         248.40         133.20    



 THE GROUND-WATER TRANSPORT PROCESS IS INACTIVE

 THE OBSERVATION PROCESS IS INACTIVE
 THE SENSITIVITY PROCESS IS INACTIVE
 THE PARAMETER-ESTIMATION PROCESS IS INACTIVE

 MODE: FORWARD

  Confining bed flag for each layer:
   0   0   0   0   0   0   0   0   0   0

       9488  ELEMENTS OF GX ARRAY USED OUT OF       9488
       1050  ELEMENTS OF GZ ARRAY USED OUT OF       1050
       1050  ELEMENTS OF IG ARRAY USED OUT OF       1050



                               DELR
 READING ON UNIT   11 WITH FORMAT:           (35E15.6) 



                               DELC
 READING ON UNIT   11 WITH FORMAT:            (3E15.6) 



           TOP ELEVATION OF LAYER 1
 READING ON UNIT   11 WITH FORMAT:           (35E15.6) 



             MODEL LAYER BOTTOM EL. FOR LAYER   1
 READING ON UNIT   11 WITH FORMAT:           (35E15.6) 



             MODEL LAYER BOTTOM EL. FOR LAYER   2
 READING ON UNIT   11 WITH FORMAT:           (35E15.6) 



             MODEL LAYER BOTTOM EL. FOR LAYER   3
 READING ON UNIT   11 WITH FORMAT:           (35E15.6) 



             MODEL LAYER BOTTOM EL. FOR LAYER   4
 READING ON UNIT   11 WITH FORMAT:           (35E15.6) 



             MODEL LAYER BOTTOM EL. FOR LAYER   5
 READING ON UNIT   11 WITH FORMAT:           (35E15.6) 



             MODEL LAYER BOTTOM EL. FOR LAYER   6
 READING ON UNIT   11 WITH FORMAT:           (35E15.6) 



             MODEL LAYER BOTTOM EL. FOR LAYER   7
 READING ON UNIT   11 WITH FORMAT:           (35E15.6) 



             MODEL LAYER BOTTOM EL. FOR LAYER   8
 READING ON UNIT   11 WITH FORMAT:           (35E15.6) 



             MODEL LAYER BOTTOM EL. FOR LAYER   9
 READING ON UNIT   11 WITH FORMAT:           (35E15.6) 



             MODEL LAYER BOTTOM EL. FOR LAYER  10
 READING ON UNIT   11 WITH FORMAT:           (35E15.6) 


 STRESS PERIOD     LENGTH       TIME STEPS     MULTIPLIER FOR DELT    SS FLAG
 ----------------------------------------------------------------------------
        1         30.00000          1                    1.000         SS

 STEADY-STATE SIMULATION




 LPF1 -- LAYER PROPERTY FLOW PACKAGE, VERSION 1, 1/11/2000
         INPUT READ FROM UNIT   15
 # LPF package for SEAWAT generated by Flopy 3.4.3
 CELL-BY-CELL FLOWS WILL BE SAVED ON UNIT   53
 HEAD AT CELLS THAT CONVERT TO DRY= -1.00000E+30
 No named parameters

   LAYER FLAGS:
 LAYER       LAYTYP        LAYAVG         CHANI        LAYVKA        LAYWET
 ---------------------------------------------------------------------------
    1             0             0     1.000E+00             0             0
    2             0             0     1.000E+00             0             0
    3             0             0     1.000E+00             0             0
    4             0             0     1.000E+00             0             0
    5             0             0     1.000E+00             0             0
    6             0             0     1.000E+00             0             0
    7             0             0     1.000E+00             0             0
    8             0             0     1.000E+00             0             0
    9             0             0     1.000E+00             0             0
   10             0             0     1.000E+00             0             0

   INTERPRETATION OF LAYER FLAGS:
                        INTERBLOCK     HORIZONTAL    DATA IN
         LAYER TYPE   TRANSMISSIVITY   ANISOTROPY   ARRAY VKA   WETTABILITY
 LAYER      (LAYTYP)      (LAYAVG)       (CHANI)      (LAYVKA)      (LAYWET)
 ---------------------------------------------------------------------------
    1      CONFINED      HARMONIC     1.000E+00    VERTICAL K  NON-WETTABLE
    2      CONFINED      HARMONIC     1.000E+00    VERTICAL K  NON-WETTABLE
    3      CONFINED      HARMONIC     1.000E+00    VERTICAL K  NON-WETTABLE
    4      CONFINED      HARMONIC     1.000E+00    VERTICAL K  NON-WETTABLE
    5      CONFINED      HARMONIC     1.000E+00    VERTICAL K  NON-WETTABLE
    6      CONFINED      HARMONIC     1.000E+00    VERTICAL K  NON-WETTABLE
    7      CONFINED      HARMONIC     1.000E+00    VERTICAL K  NON-WETTABLE
    8      CONFINED      HARMONIC     1.000E+00    VERTICAL K  NON-WETTABLE
    9      CONFINED      HARMONIC     1.000E+00    VERTICAL K  NON-WETTABLE
   10      CONFINED      HARMONIC     1.000E+00    VERTICAL K  NON-WETTABLE

       2100 ELEMENTS IN X ARRAY ARE USED BY LPF
         60 ELEMENTS IN IX ARRAY ARE USED BY LPF

 PCG2 -- CONJUGATE GRADIENT SOLUTION PACKAGE, VERSION 2.4, 12/29/98
 # PCG package for SEAWAT generated by Flopy 3.4.3
 MAXIMUM OF    200 CALLS OF SOLUTION ROUTINE
 MAXIMUM OF    200 INTERNAL ITERATIONS PER CALL TO SOLUTION ROUTINE
 MATRIX PRECONDITIONING TYPE :    1
      82100 ELEMENTS IN X ARRAY ARE USED BY PCG
     280000 ELEMENTS IN IX ARRAY ARE USED BY PCG
       4200 ELEMENTS IN Z ARRAY ARE USED BY PCG

      84200  ELEMENTS OF X ARRAY USED OUT OF      84200
       4200  ELEMENTS OF Z ARRAY USED OUT OF       4200
     280060  ELEMENTS OF IX ARRAY USED OUT OF     280060
          0  ELEMENTS OF XHS ARRAY USED OUT OF          1



                                    SOLUTION BY THE CONJUGATE-GRADIENT METHOD
                                   -------------------------------------------
                    MAXIMUM NUMBER OF CALLS TO PCG ROUTINE =      200
                        MAXIMUM ITERATIONS PER CALL TO PCG =      200
                               MATRIX PRECONDITIONING TYPE =        1
        RELAXATION FACTOR (ONLY USED WITH PRECOND. TYPE 1) =    0.10000E+01
 PARAMETER OF POLYNOMIAL PRECOND. = 2 (2) OR IS CALCULATED :        0
                         HEAD CHANGE CRITERION FOR CLOSURE =    0.10000E-02
                     RESIDUAL CHANGE CRITERION FOR CLOSURE =    0.10000E-02
            PCG HEAD AND RESIDUAL CHANGE PRINTOUT INTERVAL =      999
     PRINTING FROM SOLVER IS LIMITED(1) OR SUPPRESSED (>1) =        3
                                         DAMPING PARAMETER =    0.10000E+01

 WETTING CAPABILITY IS NOT ACTIVE IN ANY LAYER



              HYD. COND. ALONG ROWS FOR LAYER   1
 READING ON UNIT   15 WITH FORMAT:           (35E15.6) 



                VERTICAL HYD. COND. FOR LAYER   1
 READING ON UNIT   15 WITH FORMAT:           (35E15.6) 



              HYD. COND. ALONG ROWS FOR LAYER   2
 READING ON UNIT   15 WITH FORMAT:           (35E15.6) 



                VERTICAL HYD. COND. FOR LAYER   2
 READING ON UNIT   15 WITH FORMAT:           (35E15.6) 



              HYD. COND. ALONG ROWS FOR LAYER   3
 READING ON UNIT   15 WITH FORMAT:           (35E15.6) 



                VERTICAL HYD. COND. FOR LAYER   3
 READING ON UNIT   15 WITH FORMAT:           (35E15.6) 



              HYD. COND. ALONG ROWS FOR LAYER   4
 READING ON UNIT   15 WITH FORMAT:           (35E15.6) 



                VERTICAL HYD. COND. FOR LAYER   4
 READING ON UNIT   15 WITH FORMAT:           (35E15.6) 



              HYD. COND. ALONG ROWS FOR LAYER   5
 READING ON UNIT   15 WITH FORMAT:           (35E15.6) 



                VERTICAL HYD. COND. FOR LAYER   5
 READING ON UNIT   15 WITH FORMAT:           (35E15.6) 



              HYD. COND. ALONG ROWS FOR LAYER   6
 READING ON UNIT   15 WITH FORMAT:           (35E15.6) 



                VERTICAL HYD. COND. FOR LAYER   6
 READING ON UNIT   15 WITH FORMAT:           (35E15.6) 



              HYD. COND. ALONG ROWS FOR LAYER   7
 READING ON UNIT   15 WITH FORMAT:           (35E15.6) 



                VERTICAL HYD. COND. FOR LAYER   7
 READING ON UNIT   15 WITH FORMAT:           (35E15.6) 



              HYD. COND. ALONG ROWS FOR LAYER   8
 READING ON UNIT   15 WITH FORMAT:           (35E15.6) 



                VERTICAL HYD. COND. FOR LAYER   8
 READING ON UNIT   15 WITH FORMAT:           (35E15.6) 



              HYD. COND. ALONG ROWS FOR LAYER   9
 READING ON UNIT   15 WITH FORMAT:           (35E15.6) 



                VERTICAL HYD. COND. FOR LAYER   9
 READING ON UNIT   15 WITH FORMAT:           (35E15.6) 



              HYD. COND. ALONG ROWS FOR LAYER  10
 READING ON UNIT   15 WITH FORMAT:           (35E15.6) 



                VERTICAL HYD. COND. FOR LAYER  10
 READING ON UNIT   15 WITH FORMAT:           (35E15.6) 
 BTN5 -- BASIC TRANSPORT PACKAGE, VERSION 5, OCTOBER 2006, INPUT READ FROM UNIT 31
      15931 ELEMENTS OF THE  X ARRAY USED BY THE BTN PACKAGE
       1060 ELEMENTS OF THE IX ARRAY USED BY THE BTN PACKAGE

 FLOW MODEL IS STEADY-STATE

 ADV5 -- ADVECTION PACKAGE, VERSION 5, FEBRUARY 2005, INPUT READ FROM UNIT 32
 ADVECTION IS SOLVED WITH THE UPSTREAM FINITE DIFFERENCE SCHEME
 COURANT NUMBER ALLOWED IN SOLVING THE ADVECTION TERM = 0.800    
          0 ELEMENTS OF THE  X ARRAY USED BY THE ADV PACKAGE
          0 ELEMENTS OF THE IX ARRAY USED BY THE ADV PACKAGE

 DSP5 -- DISPERSION PACKAGE, VERSION 5, OCTOBER 2006, INPUT READ FROM UNIT 33
      11570 ELEMENTS OF THE  X ARRAY USED BY THE DSP PACKAGE
          0 ELEMENTS OF THE IX ARRAY USED BY THE DSP PACKAGE

 SSM5 -- SINK & SOURCE MIXING PACKAGE, VERSION 5, OCTOBER 2006, INPUT READ FROM UNIT 34
 HEADER LINE OF THE SSM PACKAGE INPUT FILE:
  T F F F F F F F F F F F F F F F                                                                                                                                                                        
 MAJOR STRESS COMPONENTS PRESENT IN THE FLOW MODEL:
  o WELL
 MAXIMUM NUMBER OF POINT SINKS/SOURCES =     238
       3094 ELEMENTS OF THE  X ARRAY USED BY THE SSM PACKAGE
          0 ELEMENTS OF THE IX ARRAY BY THE SSM PACKAGE

 RCT5 -- CHEMICAL REACTION PACKAGE, VERSION 5, FEBRUARY 2005, INPUT READ FROM UNIT 36
 TYPE OF SORPTION SELECTED IS [LINEAR]
 NO FIRST-ORDER RATE REACTION IS SIMULATED
 REACTION COEFFICIENTS ASSIGNED CELL-BY-CELL
 INITIAL SORBED/IMMOBILE PHASE CONCENTRATION ASSIGNED BY DEFAULT
       3150 ELEMENTS OF THE  X ARRAY USED BY THE RCT PACKAGE
          0 ELEMENTS OF THE IX ARRAY USED BY THE RCT PACKAGE

 GCG5 -- GENERALIZED CONJUGATE GRADIENT SOLVER PACKAGE, VERSION 5, FEBRUARY 2005 INPUT READ FROM UNIT 35
 MAXIMUM OF   50 OUTER ITERATIONS
        AND   50 INNER ITERATIONS ALLOWED FOR CLOSURE
 THE PRECONDITIONING TYPE SELECTED IS JACOBI.
 DISPERSION CROSS TERMS LUMPED INTO RIGHT-HAND-SIDE
      18250 ELEMENTS OF THE  X ARRAY USED BY THE GCG PACKAGE
       7500 ELEMENTS OF THE IX ARRAY USED BY THE GCG PACKAGE

 
 # BAS6 package for SEAWAT generated by Flopy 3.4.3                              
 THE FREE FORMAT OPTION HAS BEEN SELECTED
   10 LAYERS         3 ROWS        35 COLUMNS
    1 STRESS PERIOD(S) IN SIMULATION

 BAS6 -- BASIC PACKAGE, VERSION 6, 1/11/2000 INPUT READ FROM UNIT   13
         50 ELEMENTS IN IR ARRAY ARE USED BY BAS

 WEL6 -- WELL PACKAGE, VERSION 6, 1/11/2000 INPUT READ FROM UNIT   20
 # WEL package for SEAWAT generated by Flopy 3.4.3
 No named parameters
 MAXIMUM OF     12 ACTIVE WELLS AT ONE TIME
         48 ELEMENTS IN RX ARRAY ARE USED BY WEL

         48  ELEMENTS OF RX ARRAY USED OUT OF         48
          0  ELEMENTS OF RZ ARRAY USED OUT OF          1
         50  ELEMENTS OF IR ARRAY USED OUT OF         50
1
 # BAS6 package for SEAWAT generated by Flopy 3.4.3                              
                                                                                 



                     BOUNDARY ARRAY FOR LAYER   1
 READING ON UNIT   13 WITH FORMAT:             (35I10) 



                     BOUNDARY ARRAY FOR LAYER   2
 READING ON UNIT   13 WITH FORMAT:             (35I10) 



                     BOUNDARY ARRAY FOR LAYER   3
 READING ON UNIT   13 WITH FORMAT:             (35I10) 



                     BOUNDARY ARRAY FOR LAYER   4
 READING ON UNIT   13 WITH FORMAT:             (35I10) 



                     BOUNDARY ARRAY FOR LAYER   5
 READING ON UNIT   13 WITH FORMAT:             (35I10) 



                     BOUNDARY ARRAY FOR LAYER   6
 READING ON UNIT   13 WITH FORMAT:             (35I10) 



                     BOUNDARY ARRAY FOR LAYER   7
 READING ON UNIT   13 WITH FORMAT:             (35I10) 



                     BOUNDARY ARRAY FOR LAYER   8
 READING ON UNIT   13 WITH FORMAT:             (35I10) 



                     BOUNDARY ARRAY FOR LAYER   9
 READING ON UNIT   13 WITH FORMAT:             (35I10) 



                     BOUNDARY ARRAY FOR LAYER  10
 READING ON UNIT   13 WITH FORMAT:             (35I10) 

 AQUIFER HEAD WILL BE SET TO -999.99     AT ALL NO-FLOW NODES (IBOUND=0).



                       INITIAL HEAD FOR LAYER   1
 READING ON UNIT   13 WITH FORMAT:           (35E15.6) 



                       INITIAL HEAD FOR LAYER   2
 READING ON UNIT   13 WITH FORMAT:           (35E15.6) 



                       INITIAL HEAD FOR LAYER   3
 READING ON UNIT   13 WITH FORMAT:           (35E15.6) 



                       INITIAL HEAD FOR LAYER   4
 READING ON UNIT   13 WITH FORMAT:           (35E15.6) 



                       INITIAL HEAD FOR LAYER   5
 READING ON UNIT   13 WITH FORMAT:           (35E15.6) 



                       INITIAL HEAD FOR LAYER   6
 READING ON UNIT   13 WITH FORMAT:           (35E15.6) 



                       INITIAL HEAD FOR LAYER   7
 READING ON UNIT   13 WITH FORMAT:           (35E15.6) 



                       INITIAL HEAD FOR LAYER   8
 READING ON UNIT   13 WITH FORMAT:           (35E15.6) 



                       INITIAL HEAD FOR LAYER   9
 READING ON UNIT   13 WITH FORMAT:           (35E15.6) 



                       INITIAL HEAD FOR LAYER  10
 READING ON UNIT   13 WITH FORMAT:           (35E15.6) 
 # OC package for SEAWAT generated by Flopy 3.4.3

 OUTPUT CONTROL IS SPECIFIED ONLY AT TIME STEPS FOR WHICH OUTPUT IS DESIRED
 COMPACT CELL-BY-CELL BUDGET FILES WILL BE WRITTEN
 AUXILIARY DATA WILL BE SAVED IN CELL-BY-CELL BUDGET FILES
 HEAD PRINT FORMAT CODE IS   0    DRAWDOWN PRINT FORMAT CODE IS   0
 HEADS WILL BE SAVED ON UNIT   51    DRAWDOWNS WILL BE SAVED ON UNIT    0


     0 Well parameters
 LAYER NUMBER  AQUIFER TYPE
 ------------  ------------
       1            0
       2            0
       3            0
       4            0
       5            0
       6            0
       7            0
       8            0
       9            0
      10            0

                           WIDTH ALONG ROWS (DELR)  READ ON UNIT 31 USING FORMAT: "          (35E15.6) "
                           -----------------------------------------------------------------------------

                           WIDTH ALONG COLS (DELC)  READ ON UNIT 31 USING FORMAT: "           (3E15.6) "
                           -----------------------------------------------------------------------------

                           TOP ELEV. OF 1ST LAYER   READ ON UNIT 31 USING FORMAT: "          (35E15.6) "
                           -----------------------------------------------------------------------------

                     CELL THICKNESS (DZ)      FOR LAYER  1 READ ON UNIT 31 USING FORMAT: "          (35E15.6) "
                     ------------------------------------------------------------------------------------------

                     CELL THICKNESS (DZ)      FOR LAYER  2 READ ON UNIT 31 USING FORMAT: "          (35E15.6) "
                     ------------------------------------------------------------------------------------------

                     CELL THICKNESS (DZ)      FOR LAYER  3 READ ON UNIT 31 USING FORMAT: "          (35E15.6) "
                     ------------------------------------------------------------------------------------------

                     CELL THICKNESS (DZ)      FOR LAYER  4 READ ON UNIT 31 USING FORMAT: "          (35E15.6) "
                     ------------------------------------------------------------------------------------------

                     CELL THICKNESS (DZ)      FOR LAYER  5 READ ON UNIT 31 USING FORMAT: "          (35E15.6) "
                     ------------------------------------------------------------------------------------------

                     CELL THICKNESS (DZ)      FOR LAYER  6 READ ON UNIT 31 USING FORMAT: "          (35E15.6) "
                     ------------------------------------------------------------------------------------------

                     CELL THICKNESS (DZ)      FOR LAYER  7 READ ON UNIT 31 USING FORMAT: "          (35E15.6) "
                     ------------------------------------------------------------------------------------------

                     CELL THICKNESS (DZ)      FOR LAYER  8 READ ON UNIT 31 USING FORMAT: "          (35E15.6) "
                     ------------------------------------------------------------------------------------------

                     CELL THICKNESS (DZ)      FOR LAYER  9 READ ON UNIT 31 USING FORMAT: "          (35E15.6) "
                     ------------------------------------------------------------------------------------------

                     CELL THICKNESS (DZ)      FOR LAYER 10 READ ON UNIT 31 USING FORMAT: "          (35E15.6) "
                     ------------------------------------------------------------------------------------------

                     POROSITY                 FOR LAYER  1 READ ON UNIT 31 USING FORMAT: "          (35E15.6) "
                     ------------------------------------------------------------------------------------------

                     POROSITY                 FOR LAYER  2 READ ON UNIT 31 USING FORMAT: "          (35E15.6) "
                     ------------------------------------------------------------------------------------------

                     POROSITY                 FOR LAYER  3 READ ON UNIT 31 USING FORMAT: "          (35E15.6) "
                     ------------------------------------------------------------------------------------------

                     POROSITY                 FOR LAYER  4 READ ON UNIT 31 USING FORMAT: "          (35E15.6) "
                     ------------------------------------------------------------------------------------------

                     POROSITY                 FOR LAYER  5 READ ON UNIT 31 USING FORMAT: "          (35E15.6) "
                     ------------------------------------------------------------------------------------------

                     POROSITY                 FOR LAYER  6 READ ON UNIT 31 USING FORMAT: "          (35E15.6) "
                     ------------------------------------------------------------------------------------------

                     POROSITY                 FOR LAYER  7 READ ON UNIT 31 USING FORMAT: "          (35E15.6) "
                     ------------------------------------------------------------------------------------------

                     POROSITY                 FOR LAYER  8 READ ON UNIT 31 USING FORMAT: "          (35E15.6) "
                     ------------------------------------------------------------------------------------------

                     POROSITY                 FOR LAYER  9 READ ON UNIT 31 USING FORMAT: "          (35E15.6) "
                     ------------------------------------------------------------------------------------------

                     POROSITY                 FOR LAYER 10 READ ON UNIT 31 USING FORMAT: "          (35E15.6) "
                     ------------------------------------------------------------------------------------------

                     CONCN. BOUNDARY ARRAY    FOR LAYER  1 READ ON UNIT 31 USING FORMAT: "            (35I10) "
                     ------------------------------------------------------------------------------------------

                     CONCN. BOUNDARY ARRAY    FOR LAYER  2 READ ON UNIT 31 USING FORMAT: "            (35I10) "
                     ------------------------------------------------------------------------------------------

                     CONCN. BOUNDARY ARRAY    FOR LAYER  3 READ ON UNIT 31 USING FORMAT: "            (35I10) "
                     ------------------------------------------------------------------------------------------

                     CONCN. BOUNDARY ARRAY    FOR LAYER  4 READ ON UNIT 31 USING FORMAT: "            (35I10) "
                     ------------------------------------------------------------------------------------------

                     CONCN. BOUNDARY ARRAY    FOR LAYER  5 READ ON UNIT 31 USING FORMAT: "            (35I10) "
                     ------------------------------------------------------------------------------------------

                     CONCN. BOUNDARY ARRAY    FOR LAYER  6 READ ON UNIT 31 USING FORMAT: "            (35I10) "
                     ------------------------------------------------------------------------------------------

                     CONCN. BOUNDARY ARRAY    FOR LAYER  7 READ ON UNIT 31 USING FORMAT: "            (35I10) "
                     ------------------------------------------------------------------------------------------

                     CONCN. BOUNDARY ARRAY    FOR LAYER  8 READ ON UNIT 31 USING FORMAT: "            (35I10) "
                     ------------------------------------------------------------------------------------------

                     CONCN. BOUNDARY ARRAY    FOR LAYER  9 READ ON UNIT 31 USING FORMAT: "            (35I10) "
                     ------------------------------------------------------------------------------------------

                     CONCN. BOUNDARY ARRAY    FOR LAYER 10 READ ON UNIT 31 USING FORMAT: "            (35I10) "
                     ------------------------------------------------------------------------------------------

                     INITIAL CONC.: COMP.  01 FOR LAYER  1 READ ON UNIT 31 USING FORMAT: "          (35E15.6) "
                     ------------------------------------------------------------------------------------------

                     INITIAL CONC.: COMP.  01 FOR LAYER  2 READ ON UNIT 31 USING FORMAT: "          (35E15.6) "
                     ------------------------------------------------------------------------------------------

                     INITIAL CONC.: COMP.  01 FOR LAYER  3 READ ON UNIT 31 USING FORMAT: "          (35E15.6) "
                     ------------------------------------------------------------------------------------------

                     INITIAL CONC.: COMP.  01 FOR LAYER  4 READ ON UNIT 31 USING FORMAT: "          (35E15.6) "
                     ------------------------------------------------------------------------------------------

                     INITIAL CONC.: COMP.  01 FOR LAYER  5 READ ON UNIT 31 USING FORMAT: "          (35E15.6) "
                     ------------------------------------------------------------------------------------------

                     INITIAL CONC.: COMP.  01 FOR LAYER  6 READ ON UNIT 31 USING FORMAT: "          (35E15.6) "
                     ------------------------------------------------------------------------------------------

                     INITIAL CONC.: COMP.  01 FOR LAYER  7 READ ON UNIT 31 USING FORMAT: "          (35E15.6) "
                     ------------------------------------------------------------------------------------------

                     INITIAL CONC.: COMP.  01 FOR LAYER  8 READ ON UNIT 31 USING FORMAT: "          (35E15.6) "
                     ------------------------------------------------------------------------------------------

                     INITIAL CONC.: COMP.  01 FOR LAYER  9 READ ON UNIT 31 USING FORMAT: "          (35E15.6) "
                     ------------------------------------------------------------------------------------------

                     INITIAL CONC.: COMP.  01 FOR LAYER 10 READ ON UNIT 31 USING FORMAT: "          (35E15.6) "
                     ------------------------------------------------------------------------------------------

 VALUE INDICATING INACTIVE CONCENTRATION CELLS =  -100.00000    
 MINIMUM SATURATED THICKNESS [THKMIN] ALLOWED =  0.0100 OF TOTAL CELL THICKNESS


 OUTPUT CONTROL OPTIONS
 ----------------------

 PRINT CELL CONCENTRATION USING FORMAT CODE:   -1
 DO NOT PRINT PARTICLE NUMBER IN EACH CELL
 DO NOT PRINT RETARDATION FACTOR
 DO NOT PRINT DISPERSION COEFFICIENT
 SAVE DISSOLVED PHASE CONCENTRATIONS IN UNFORMATTED FILES [MT3Dnnn.UCN]
  FOR EACH SPECIES ON UNITS 201 AND ABOVE
 SAVE SORBED/IMMOBILE PHASE CONCENTRATIONS IN UNFORMATTED FILES [MT3DnnnS.UCN]
  FOR EACH SPECIES ON UNITS 301 AND ABOVE, IF SORPTION/MASS TRANSFER SIMULATED

 NUMBER OF TIMES AT WHICH SIMULATION RESULTS ARE SAVED =    1
 TOTAL ELAPSED TIMES AT WHICH SIMULATION RESULTS ARE SAVED: 
    30.000    

 NUMBER OF OBSERVATION POINTS =    0

 DO NOT SAVE ONE-LINE SUMMARY OF MASS BUDGETS

 MAXIMUM LENGTH ALONG THE X (J) AXIS =   946.8390    
 MAXIMUM LENGTH ALONG THE Y (I) AXIS =   3.000000    
 MAXIMUM LENGTH ALONG THE Z (K) AXIS =   50.00000    


 ADVECTION SOLUTION OPTIONS
 --------------------------

 ADVECTION IS SOLVED WITH THE UPSTREAM FINITE DIFFERENCE SCHEME
 COURANT NUMBER ALLOWED IN SOLVING THE ADVECTION TERM = 0.800    


 DISPERSION INPUT PARAMETERS
 ---------------------------

 DISPERSION PACKAGE INPUT KEYWORDS: MULTIDIFFUSION
                                       LONG. DISPERSIVITY (AL)  =  0.5000000     FOR LAYER  1
                                       LONG. DISPERSIVITY (AL)  =  0.5000000     FOR LAYER  2
                                       LONG. DISPERSIVITY (AL)  =  0.5000000     FOR LAYER  3
                                       LONG. DISPERSIVITY (AL)  =  0.5000000     FOR LAYER  4
                                       LONG. DISPERSIVITY (AL)  =  0.5000000     FOR LAYER  5
                                       LONG. DISPERSIVITY (AL)  =  0.5000000     FOR LAYER  6
                                       LONG. DISPERSIVITY (AL)  =  0.5000000     FOR LAYER  7
                                       LONG. DISPERSIVITY (AL)  =  0.5000000     FOR LAYER  8
                                       LONG. DISPERSIVITY (AL)  =  0.5000000     FOR LAYER  9
                                       LONG. DISPERSIVITY (AL)  =  0.5000000     FOR LAYER 10
                                       H. TRANS./LONG. DISP.    =  0.5000000E-01
                                       V. TRANS./LONG. DISP.    =  0.5000000E-02

                     DIFFUSION COEFF. COMP 01 FOR LAYER  1 READ ON UNIT 33 USING FORMAT: "          (35E15.6) "
                     ------------------------------------------------------------------------------------------

                     DIFFUSION COEFF. COMP 01 FOR LAYER  2 READ ON UNIT 33 USING FORMAT: "          (35E15.6) "
                     ------------------------------------------------------------------------------------------

                     DIFFUSION COEFF. COMP 01 FOR LAYER  3 READ ON UNIT 33 USING FORMAT: "          (35E15.6) "
                     ------------------------------------------------------------------------------------------

                     DIFFUSION COEFF. COMP 01 FOR LAYER  4 READ ON UNIT 33 USING FORMAT: "          (35E15.6) "
                     ------------------------------------------------------------------------------------------

                     DIFFUSION COEFF. COMP 01 FOR LAYER  5 READ ON UNIT 33 USING FORMAT: "          (35E15.6) "
                     ------------------------------------------------------------------------------------------

                     DIFFUSION COEFF. COMP 01 FOR LAYER  6 READ ON UNIT 33 USING FORMAT: "          (35E15.6) "
                     ------------------------------------------------------------------------------------------

                     DIFFUSION COEFF. COMP 01 FOR LAYER  7 READ ON UNIT 33 USING FORMAT: "          (35E15.6) "
                     ------------------------------------------------------------------------------------------

                     DIFFUSION COEFF. COMP 01 FOR LAYER  8 READ ON UNIT 33 USING FORMAT: "          (35E15.6) "
                     ------------------------------------------------------------------------------------------

                     DIFFUSION COEFF. COMP 01 FOR LAYER  9 READ ON UNIT 33 USING FORMAT: "          (35E15.6) "
                     ------------------------------------------------------------------------------------------

                     DIFFUSION COEFF. COMP 01 FOR LAYER 10 READ ON UNIT 33 USING FORMAT: "          (35E15.6) "
                     ------------------------------------------------------------------------------------------


 SORPTION AND 1ST/0TH ORDER REACTION PARAMETERS
 ----------------------------------------------


                     BULK DENSITY (RHOB)      FOR LAYER  1 READ ON UNIT 36 USING FORMAT: "          (35E15.6) "
                     ------------------------------------------------------------------------------------------

                     BULK DENSITY (RHOB)      FOR LAYER  2 READ ON UNIT 36 USING FORMAT: "          (35E15.6) "
                     ------------------------------------------------------------------------------------------

                     BULK DENSITY (RHOB)      FOR LAYER  3 READ ON UNIT 36 USING FORMAT: "          (35E15.6) "
                     ------------------------------------------------------------------------------------------

                     BULK DENSITY (RHOB)      FOR LAYER  4 READ ON UNIT 36 USING FORMAT: "          (35E15.6) "
                     ------------------------------------------------------------------------------------------

                     BULK DENSITY (RHOB)      FOR LAYER  5 READ ON UNIT 36 USING FORMAT: "          (35E15.6) "
                     ------------------------------------------------------------------------------------------

                     BULK DENSITY (RHOB)      FOR LAYER  6 READ ON UNIT 36 USING FORMAT: "          (35E15.6) "
                     ------------------------------------------------------------------------------------------

                     BULK DENSITY (RHOB)      FOR LAYER  7 READ ON UNIT 36 USING FORMAT: "          (35E15.6) "
                     ------------------------------------------------------------------------------------------

                     BULK DENSITY (RHOB)      FOR LAYER  8 READ ON UNIT 36 USING FORMAT: "          (35E15.6) "
                     ------------------------------------------------------------------------------------------

                     BULK DENSITY (RHOB)      FOR LAYER  9 READ ON UNIT 36 USING FORMAT: "          (35E15.6) "
                     ------------------------------------------------------------------------------------------

                     BULK DENSITY (RHOB)      FOR LAYER 10 READ ON UNIT 36 USING FORMAT: "          (35E15.6) "
                     ------------------------------------------------------------------------------------------
                                       1ST SORP. COEF. COMP. 01 =  0.1697300E-03 FOR LAYER  1
                                       1ST SORP. COEF. COMP. 01 =  0.1697300E-03 FOR LAYER  2
                                       1ST SORP. COEF. COMP. 01 =  0.1697300E-03 FOR LAYER  3
                                       1ST SORP. COEF. COMP. 01 =  0.1697300E-03 FOR LAYER  4
                                       1ST SORP. COEF. COMP. 01 =  0.1697300E-03 FOR LAYER  5
                                       1ST SORP. COEF. COMP. 01 =  0.1697300E-03 FOR LAYER  6
                                       1ST SORP. COEF. COMP. 01 =  0.1697300E-03 FOR LAYER  7
                                       1ST SORP. COEF. COMP. 01 =  0.1697300E-03 FOR LAYER  8
                                       1ST SORP. COEF. COMP. 01 =  0.1697300E-03 FOR LAYER  9
                                       1ST SORP. COEF. COMP. 01 =  0.1697300E-03 FOR LAYER 10
                                       2ND SORP. COEF. COMP. 01 =   0.000000     FOR LAYER  1
                                       2ND SORP. COEF. COMP. 01 =   0.000000     FOR LAYER  2
                                       2ND SORP. COEF. COMP. 01 =   0.000000     FOR LAYER  3
                                       2ND SORP. COEF. COMP. 01 =   0.000000     FOR LAYER  4
                                       2ND SORP. COEF. COMP. 01 =   0.000000     FOR LAYER  5
                                       2ND SORP. COEF. COMP. 01 =   0.000000     FOR LAYER  6
                                       2ND SORP. COEF. COMP. 01 =   0.000000     FOR LAYER  7
                                       2ND SORP. COEF. COMP. 01 =   0.000000     FOR LAYER  8
                                       2ND SORP. COEF. COMP. 01 =   0.000000     FOR LAYER  9
                                       2ND SORP. COEF. COMP. 01 =   0.000000     FOR LAYER 10



                                               SOLUTION BY THE GENERALIZED CONJUGATE GRADIENT METHOD
                                               -----------------------------------------------------
                                     MAXIMUM OUTER ITERATIONS ALLOWED FOR CLOSURE =       50
                                     MAXIMUM INNER ITERATIONS ALLOWED FOR CLOSURE =       50
                                                    PRECONDITIONING TYPE SELECTED =    1
                                                           ACCELERATION PARAMETER =    1.00000    
                                       CONCENTRATION CHANGE CRITERION FOR CLOSURE =    0.10000E-08
                                       GCG CONCENTRATION CHANGE PRINTOUT INTERVAL =      999


                                   ++++++++++++++++++++++++++++++++++++++++++++++++++++++++++++++
                                                       STRESS PERIOD NO.  001
                                   ++++++++++++++++++++++++++++++++++++++++++++++++++++++++++++++


 LENGTH OF CURRENT STRESS PERIOD =   30.00000    
 NUMBER OF TIME STEPS FOR CURRENT STRESS PERIOD =    1
 TIME STEP MULTIPLIER USED IN FLOW SOLUTION =  1.0000000    
 USER-SPECIFIED TRANSPORT STEPSIZE =   0.000000    D   
 MAXIMUM NUMBER OF TRANSPORT STEPS ALLOWED  IN ONE FLOW TIME STEP =      9999
 MULTIPLIER FOR SUCCESSIVE TRANSPORT STEPS  [USED IN IMPLICIT SCHEMES] =     1.000
 MAXIMUM TRANSPORT STEP SIZE  [USED IN IMPLICIT SCHEMES] =  1.0000000    D   
1
                            STRESS PERIOD NO.    1, LENGTH =   30.00000    
                            -----------------------------------------------

                              NUMBER OF TIME STEPS =     1

                               MULTIPLIER FOR DELT =     1.000

                            INITIAL TIME STEP SIZE =   30.00000    

       NO    LAYER   ROW   COLUMN   CONCENTRATION       TYPE            COMPONENT
       1       3       1       1       16.00000         WELL                1
       2       4       1       1       16.00000         WELL                1
       3       5       1       1       16.00000         WELL                1
       4       6       1       1       16.00000         WELL                1
       5       7       1       1       16.00000         WELL                1
       6       8       1       1       16.00000         WELL                1
       7       3       3       1       8.000000         WELL                1
       8       4       3       1       8.000000         WELL                1
       9       5       3       1       8.000000         WELL                1
      10       6       3       1       8.000000         WELL                1
      11       7       3       1       8.000000         WELL                1
      12       8       3       1       8.000000         WELL                1

 WELL NO.  LAYER   ROW   COL   STRESS RATE         
 --------------------------------------------------
      1      3      1      1      -322.3    
      2      4      1      1      -322.3    
      3      5      1      1      -322.3    
      4      6      1      1      -322.3    
      5      7      1      1      -322.3    
      6      8      1      1      -322.3    
      7      3      3      1       322.3    
      8      4      3      1       322.3    
      9      5      3      1       322.3    
     10      6      3      1       322.3    
     11      7      3      1       322.3    
     12      8      3      1       322.3    

     12 WELLS


                                          ================================================
                                                         FROM TIME =   0.0000     TO    30.000    

 
 SOLVING FOR HEAD 
 FLOW MODEL IS STEADY-STATE
 FLOW MODEL CONTAINS CONSTANT-HEAD CELLS


 MAXIMUM STEPSIZE DURING WHICH ANY PARTICLE CANNOT MOVE MORE THAN ONE CELL
 =  1.095    (WHEN MIN. R.F.=1)  AT K=   7, I=   1, J=   2

 MAXIMUM STEPSIZE WHICH MEETS STABILITY CRITERION OF THE ADVECTION TERM
 (FOR PURE FINITE-DIFFERENCE OPTION, MIXELM=0) 
 =  1.094    (WHEN MIN. R.F.=1)  AT K=   4, I=   1, J=   2


 TOTAL NUMBER OF POINT SOURCES/SINKS PRESENT IN THE FLOW MODEL =   238

 MAXIMUM STEPSIZE WHICH MEETS STABILITY CRITERION OF THE SINK & SOURCE TERM
 = 0.3655    (WHEN MIN. R.F.=1)  AT K=   3, I=   3, J=   1

 MAXIMUM STEPSIZE WHICH MEETS STABILITY CRITERION OF THE DISPERSION TERM
 =  1.735    (WHEN MIN. R.F.=1)  AT K=   7, I=   1, J=   1


     2 CALLS TO GCG PACKAGE FOR TRANSPORT TIME STEP   1 IN FLOW TIME STEP   1 STRESS PERIOD   1
     3 TOTAL ITERATIONS

 OUTPUT CONTROL FOR STRESS PERIOD    1   TIME STEP   1
    SAVE HEAD FOR ALL LAYERS
0WARNING: NUMERICAL OSCILLATION ENCOUNTERED
 ONE OR MORE CELL CONCENTRATIONS LESS THAN CRHOREF
 SMALLEST DENSITY =  0.100E+04
 AT CELL (I,J,K) = (   1,   1,   4)

 
 SOLVING FOR HEAD 
 FLOW MODEL IS STEADY-STATE
 FLOW MODEL CONTAINS CONSTANT-HEAD CELLS


 MAXIMUM STEPSIZE DURING WHICH ANY PARTICLE CANNOT MOVE MORE THAN ONE CELL
 =  1.095    (WHEN MIN. R.F.=1)  AT K=   7, I=   1, J=   2

 MAXIMUM STEPSIZE WHICH MEETS STABILITY CRITERION OF THE ADVECTION TERM
 (FOR PURE FINITE-DIFFERENCE OPTION, MIXELM=0) 
 =  1.094    (WHEN MIN. R.F.=1)  AT K=   4, I=   1, J=   2


 TOTAL NUMBER OF POINT SOURCES/SINKS PRESENT IN THE FLOW MODEL =   238

 MAXIMUM STEPSIZE WHICH MEETS STABILITY CRITERION OF THE SINK & SOURCE TERM
 = 0.3655    (WHEN MIN. R.F.=1)  AT K=   3, I=   3, J=   1

 MAXIMUM STEPSIZE WHICH MEETS STABILITY CRITERION OF THE DISPERSION TERM
 =  1.735    (WHEN MIN. R.F.=1)  AT K=   7, I=   1, J=   1
     2 CALLS TO GCG PACKAGE FOR TRANSPORT TIME STEP   2 IN FLOW TIME STEP   1 STRESS PERIOD   1
    10 TOTAL ITERATIONS
0WARNING: NUMERICAL OSCILLATION ENCOUNTERED
 ONE OR MORE CELL CONCENTRATIONS LESS THAN CRHOREF
 SMALLEST DENSITY =  0.100E+04
 AT CELL (I,J,K) = (   1,   1,   4)

 
 SOLVING FOR HEAD 
 FLOW MODEL IS STEADY-STATE
 FLOW MODEL CONTAINS CONSTANT-HEAD CELLS


 MAXIMUM STEPSIZE DURING WHICH ANY PARTICLE CANNOT MOVE MORE THAN ONE CELL
 =  1.095    (WHEN MIN. R.F.=1)  AT K=   7, I=   1, J=   2

 MAXIMUM STEPSIZE WHICH MEETS STABILITY CRITERION OF THE ADVECTION TERM
 (FOR PURE FINITE-DIFFERENCE OPTION, MIXELM=0) 
 =  1.094    (WHEN MIN. R.F.=1)  AT K=   4, I=   1, J=   2


 TOTAL NUMBER OF POINT SOURCES/SINKS PRESENT IN THE FLOW MODEL =   238

 MAXIMUM STEPSIZE WHICH MEETS STABILITY CRITERION OF THE SINK & SOURCE TERM
 = 0.3655    (WHEN MIN. R.F.=1)  AT K=   3, I=   3, J=   1

 MAXIMUM STEPSIZE WHICH MEETS STABILITY CRITERION OF THE DISPERSION TERM
 =  1.735    (WHEN MIN. R.F.=1)  AT K=   7, I=   1, J=   1
     2 CALLS TO GCG PACKAGE FOR TRANSPORT TIME STEP   3 IN FLOW TIME STEP   1 STRESS PERIOD   1
    10 TOTAL ITERATIONS
0WARNING: NUMERICAL OSCILLATION ENCOUNTERED
 ONE OR MORE CELL CONCENTRATIONS LESS THAN CRHOREF
 SMALLEST DENSITY =  0.100E+04
 AT CELL (I,J,K) = (   1,   1,   4)

 
 SOLVING FOR HEAD 
 FLOW MODEL IS STEADY-STATE
 FLOW MODEL CONTAINS CONSTANT-HEAD CELLS


 MAXIMUM STEPSIZE DURING WHICH ANY PARTICLE CANNOT MOVE MORE THAN ONE CELL
 =  1.095    (WHEN MIN. R.F.=1)  AT K=   7, I=   1, J=   2

 MAXIMUM STEPSIZE WHICH MEETS STABILITY CRITERION OF THE ADVECTION TERM
 (FOR PURE FINITE-DIFFERENCE OPTION, MIXELM=0) 
 =  1.094    (WHEN MIN. R.F.=1)  AT K=   4, I=   1, J=   2


 TOTAL NUMBER OF POINT SOURCES/SINKS PRESENT IN THE FLOW MODEL =   238

 MAXIMUM STEPSIZE WHICH MEETS STABILITY CRITERION OF THE SINK & SOURCE TERM
 = 0.3655    (WHEN MIN. R.F.=1)  AT K=   3, I=   3, J=   1

 MAXIMUM STEPSIZE WHICH MEETS STABILITY CRITERION OF THE DISPERSION TERM
 =  1.735    (WHEN MIN. R.F.=1)  AT K=   7, I=   1, J=   1
     2 CALLS TO GCG PACKAGE FOR TRANSPORT TIME STEP   4 IN FLOW TIME STEP   1 STRESS PERIOD   1
    11 TOTAL ITERATIONS
0WARNING: NUMERICAL OSCILLATION ENCOUNTERED
 ONE OR MORE CELL CONCENTRATIONS LESS THAN CRHOREF
 SMALLEST DENSITY =  0.100E+04
 AT CELL (I,J,K) = (   1,   1,   4)

 
 SOLVING FOR HEAD 
 FLOW MODEL IS STEADY-STATE
 FLOW MODEL CONTAINS CONSTANT-HEAD CELLS


 MAXIMUM STEPSIZE DURING WHICH ANY PARTICLE CANNOT MOVE MORE THAN ONE CELL
 =  1.095    (WHEN MIN. R.F.=1)  AT K=   7, I=   1, J=   2

 MAXIMUM STEPSIZE WHICH MEETS STABILITY CRITERION OF THE ADVECTION TERM
 (FOR PURE FINITE-DIFFERENCE OPTION, MIXELM=0) 
 =  1.094    (WHEN MIN. R.F.=1)  AT K=   4, I=   1, J=   2


 TOTAL NUMBER OF POINT SOURCES/SINKS PRESENT IN THE FLOW MODEL =   238

 MAXIMUM STEPSIZE WHICH MEETS STABILITY CRITERION OF THE SINK & SOURCE TERM
 = 0.3655    (WHEN MIN. R.F.=1)  AT K=   3, I=   3, J=   1

 MAXIMUM STEPSIZE WHICH MEETS STABILITY CRITERION OF THE DISPERSION TERM
 =  1.735    (WHEN MIN. R.F.=1)  AT K=   7, I=   1, J=   1
     2 CALLS TO GCG PACKAGE FOR TRANSPORT TIME STEP   5 IN FLOW TIME STEP   1 STRESS PERIOD   1
    11 TOTAL ITERATIONS
0WARNING: NUMERICAL OSCILLATION ENCOUNTERED
 ONE OR MORE CELL CONCENTRATIONS LESS THAN CRHOREF
 SMALLEST DENSITY =  0.100E+04
 AT CELL (I,J,K) = (   1,   1,   4)

 
 SOLVING FOR HEAD 
 FLOW MODEL IS STEADY-STATE
 FLOW MODEL CONTAINS CONSTANT-HEAD CELLS


 MAXIMUM STEPSIZE DURING WHICH ANY PARTICLE CANNOT MOVE MORE THAN ONE CELL
 =  1.095    (WHEN MIN. R.F.=1)  AT K=   7, I=   1, J=   2

 MAXIMUM STEPSIZE WHICH MEETS STABILITY CRITERION OF THE ADVECTION TERM
 (FOR PURE FINITE-DIFFERENCE OPTION, MIXELM=0) 
 =  1.094    (WHEN MIN. R.F.=1)  AT K=   4, I=   1, J=   2


 TOTAL NUMBER OF POINT SOURCES/SINKS PRESENT IN THE FLOW MODEL =   238

 MAXIMUM STEPSIZE WHICH MEETS STABILITY CRITERION OF THE SINK & SOURCE TERM
 = 0.3655    (WHEN MIN. R.F.=1)  AT K=   3, I=   3, J=   1

 MAXIMUM STEPSIZE WHICH MEETS STABILITY CRITERION OF THE DISPERSION TERM
 =  1.735    (WHEN MIN. R.F.=1)  AT K=   7, I=   1, J=   1
     2 CALLS TO GCG PACKAGE FOR TRANSPORT TIME STEP   6 IN FLOW TIME STEP   1 STRESS PERIOD   1
    11 TOTAL ITERATIONS
0WARNING: NUMERICAL OSCILLATION ENCOUNTERED
 ONE OR MORE CELL CONCENTRATIONS LESS THAN CRHOREF
 SMALLEST DENSITY =  0.100E+04
 AT CELL (I,J,K) = (   1,   1,   4)

 
 SOLVING FOR HEAD 
 FLOW MODEL IS STEADY-STATE
 FLOW MODEL CONTAINS CONSTANT-HEAD CELLS


 MAXIMUM STEPSIZE DURING WHICH ANY PARTICLE CANNOT MOVE MORE THAN ONE CELL
 =  1.095    (WHEN MIN. R.F.=1)  AT K=   7, I=   1, J=   2

 MAXIMUM STEPSIZE WHICH MEETS STABILITY CRITERION OF THE ADVECTION TERM
 (FOR PURE FINITE-DIFFERENCE OPTION, MIXELM=0) 
 =  1.094    (WHEN MIN. R.F.=1)  AT K=   4, I=   1, J=   2


 TOTAL NUMBER OF POINT SOURCES/SINKS PRESENT IN THE FLOW MODEL =   238

 MAXIMUM STEPSIZE WHICH MEETS STABILITY CRITERION OF THE SINK & SOURCE TERM
 = 0.3655    (WHEN MIN. R.F.=1)  AT K=   3, I=   3, J=   1

 MAXIMUM STEPSIZE WHICH MEETS STABILITY CRITERION OF THE DISPERSION TERM
 =  1.735    (WHEN MIN. R.F.=1)  AT K=   7, I=   1, J=   1
     2 CALLS TO GCG PACKAGE FOR TRANSPORT TIME STEP   7 IN FLOW TIME STEP   1 STRESS PERIOD   1
    10 TOTAL ITERATIONS
0WARNING: NUMERICAL OSCILLATION ENCOUNTERED
 ONE OR MORE CELL CONCENTRATIONS LESS THAN CRHOREF
 SMALLEST DENSITY =  0.100E+04
 AT CELL (I,J,K) = (   1,   1,   4)

 
 SOLVING FOR HEAD 
 FLOW MODEL IS STEADY-STATE
 FLOW MODEL CONTAINS CONSTANT-HEAD CELLS


 MAXIMUM STEPSIZE DURING WHICH ANY PARTICLE CANNOT MOVE MORE THAN ONE CELL
 =  1.095    (WHEN MIN. R.F.=1)  AT K=   7, I=   1, J=   2

 MAXIMUM STEPSIZE WHICH MEETS STABILITY CRITERION OF THE ADVECTION TERM
 (FOR PURE FINITE-DIFFERENCE OPTION, MIXELM=0) 
 =  1.094    (WHEN MIN. R.F.=1)  AT K=   4, I=   1, J=   2


 TOTAL NUMBER OF POINT SOURCES/SINKS PRESENT IN THE FLOW MODEL =   238

 MAXIMUM STEPSIZE WHICH MEETS STABILITY CRITERION OF THE SINK & SOURCE TERM
 = 0.3655    (WHEN MIN. R.F.=1)  AT K=   3, I=   3, J=   1

 MAXIMUM STEPSIZE WHICH MEETS STABILITY CRITERION OF THE DISPERSION TERM
 =  1.735    (WHEN MIN. R.F.=1)  AT K=   7, I=   1, J=   1
     2 CALLS TO GCG PACKAGE FOR TRANSPORT TIME STEP   8 IN FLOW TIME STEP   1 STRESS PERIOD   1
    10 TOTAL ITERATIONS
0WARNING: NUMERICAL OSCILLATION ENCOUNTERED
 ONE OR MORE CELL CONCENTRATIONS LESS THAN CRHOREF
 SMALLEST DENSITY =  0.100E+04
 AT CELL (I,J,K) = (   1,   1,   4)

 
 SOLVING FOR HEAD 
 FLOW MODEL IS STEADY-STATE
 FLOW MODEL CONTAINS CONSTANT-HEAD CELLS


 MAXIMUM STEPSIZE DURING WHICH ANY PARTICLE CANNOT MOVE MORE THAN ONE CELL
 =  1.095    (WHEN MIN. R.F.=1)  AT K=   7, I=   1, J=   2

 MAXIMUM STEPSIZE WHICH MEETS STABILITY CRITERION OF THE ADVECTION TERM
 (FOR PURE FINITE-DIFFERENCE OPTION, MIXELM=0) 
 =  1.094    (WHEN MIN. R.F.=1)  AT K=   4, I=   1, J=   2


 TOTAL NUMBER OF POINT SOURCES/SINKS PRESENT IN THE FLOW MODEL =   238

 MAXIMUM STEPSIZE WHICH MEETS STABILITY CRITERION OF THE SINK & SOURCE TERM
 = 0.3655    (WHEN MIN. R.F.=1)  AT K=   3, I=   3, J=   1

 MAXIMUM STEPSIZE WHICH MEETS STABILITY CRITERION OF THE DISPERSION TERM
 =  1.735    (WHEN MIN. R.F.=1)  AT K=   7, I=   1, J=   1
     2 CALLS TO GCG PACKAGE FOR TRANSPORT TIME STEP   9 IN FLOW TIME STEP   1 STRESS PERIOD   1
    10 TOTAL ITERATIONS
0WARNING: NUMERICAL OSCILLATION ENCOUNTERED
 ONE OR MORE CELL CONCENTRATIONS LESS THAN CRHOREF
 SMALLEST DENSITY =  0.100E+04
 AT CELL (I,J,K) = (   1,   1,   4)

 
 SOLVING FOR HEAD 
 FLOW MODEL IS STEADY-STATE
 FLOW MODEL CONTAINS CONSTANT-HEAD CELLS


 MAXIMUM STEPSIZE DURING WHICH ANY PARTICLE CANNOT MOVE MORE THAN ONE CELL
 =  1.095    (WHEN MIN. R.F.=1)  AT K=   7, I=   1, J=   2

 MAXIMUM STEPSIZE WHICH MEETS STABILITY CRITERION OF THE ADVECTION TERM
 (FOR PURE FINITE-DIFFERENCE OPTION, MIXELM=0) 
 =  1.094    (WHEN MIN. R.F.=1)  AT K=   4, I=   1, J=   2


 TOTAL NUMBER OF POINT SOURCES/SINKS PRESENT IN THE FLOW MODEL =   238

 MAXIMUM STEPSIZE WHICH MEETS STABILITY CRITERION OF THE SINK & SOURCE TERM
 = 0.3655    (WHEN MIN. R.F.=1)  AT K=   3, I=   3, J=   1

 MAXIMUM STEPSIZE WHICH MEETS STABILITY CRITERION OF THE DISPERSION TERM
 =  1.735    (WHEN MIN. R.F.=1)  AT K=   7, I=   1, J=   1
     2 CALLS TO GCG PACKAGE FOR TRANSPORT TIME STEP  10 IN FLOW TIME STEP   1 STRESS PERIOD   1
    10 TOTAL ITERATIONS
0WARNING: NUMERICAL OSCILLATION ENCOUNTERED
 ONE OR MORE CELL CONCENTRATIONS LESS THAN CRHOREF
 SMALLEST DENSITY =  0.100E+04
 AT CELL (I,J,K) = (   1,   1,   4)

 
 SOLVING FOR HEAD 
 FLOW MODEL IS STEADY-STATE
 FLOW MODEL CONTAINS CONSTANT-HEAD CELLS


 MAXIMUM STEPSIZE DURING WHICH ANY PARTICLE CANNOT MOVE MORE THAN ONE CELL
 =  1.095    (WHEN MIN. R.F.=1)  AT K=   7, I=   1, J=   2

 MAXIMUM STEPSIZE WHICH MEETS STABILITY CRITERION OF THE ADVECTION TERM
 (FOR PURE FINITE-DIFFERENCE OPTION, MIXELM=0) 
 =  1.094    (WHEN MIN. R.F.=1)  AT K=   4, I=   1, J=   2


 TOTAL NUMBER OF POINT SOURCES/SINKS PRESENT IN THE FLOW MODEL =   238

 MAXIMUM STEPSIZE WHICH MEETS STABILITY CRITERION OF THE SINK & SOURCE TERM
 = 0.3655    (WHEN MIN. R.F.=1)  AT K=   3, I=   3, J=   1

 MAXIMUM STEPSIZE WHICH MEETS STABILITY CRITERION OF THE DISPERSION TERM
 =  1.735    (WHEN MIN. R.F.=1)  AT K=   7, I=   1, J=   1
     2 CALLS TO GCG PACKAGE FOR TRANSPORT TIME STEP  11 IN FLOW TIME STEP   1 STRESS PERIOD   1
    10 TOTAL ITERATIONS
0WARNING: NUMERICAL OSCILLATION ENCOUNTERED
 ONE OR MORE CELL CONCENTRATIONS LESS THAN CRHOREF
 SMALLEST DENSITY =  0.100E+04
 AT CELL (I,J,K) = (   1,   1,   4)

 
 SOLVING FOR HEAD 
 FLOW MODEL IS STEADY-STATE
 FLOW MODEL CONTAINS CONSTANT-HEAD CELLS


 MAXIMUM STEPSIZE DURING WHICH ANY PARTICLE CANNOT MOVE MORE THAN ONE CELL
 =  1.095    (WHEN MIN. R.F.=1)  AT K=   7, I=   1, J=   2

 MAXIMUM STEPSIZE WHICH MEETS STABILITY CRITERION OF THE ADVECTION TERM
 (FOR PURE FINITE-DIFFERENCE OPTION, MIXELM=0) 
 =  1.094    (WHEN MIN. R.F.=1)  AT K=   4, I=   1, J=   2


 TOTAL NUMBER OF POINT SOURCES/SINKS PRESENT IN THE FLOW MODEL =   238

 MAXIMUM STEPSIZE WHICH MEETS STABILITY CRITERION OF THE SINK & SOURCE TERM
 = 0.3655    (WHEN MIN. R.F.=1)  AT K=   3, I=   3, J=   1

 MAXIMUM STEPSIZE WHICH MEETS STABILITY CRITERION OF THE DISPERSION TERM
 =  1.735    (WHEN MIN. R.F.=1)  AT K=   7, I=   1, J=   1
     2 CALLS TO GCG PACKAGE FOR TRANSPORT TIME STEP  12 IN FLOW TIME STEP   1 STRESS PERIOD   1
    10 TOTAL ITERATIONS
0WARNING: NUMERICAL OSCILLATION ENCOUNTERED
 ONE OR MORE CELL CONCENTRATIONS LESS THAN CRHOREF
 SMALLEST DENSITY =  0.100E+04
 AT CELL (I,J,K) = (   1,   1,   4)

 
 SOLVING FOR HEAD 
 FLOW MODEL IS STEADY-STATE
 FLOW MODEL CONTAINS CONSTANT-HEAD CELLS


 MAXIMUM STEPSIZE DURING WHICH ANY PARTICLE CANNOT MOVE MORE THAN ONE CELL
 =  1.095    (WHEN MIN. R.F.=1)  AT K=   7, I=   1, J=   2

 MAXIMUM STEPSIZE WHICH MEETS STABILITY CRITERION OF THE ADVECTION TERM
 (FOR PURE FINITE-DIFFERENCE OPTION, MIXELM=0) 
 =  1.094    (WHEN MIN. R.F.=1)  AT K=   4, I=   1, J=   2


 TOTAL NUMBER OF POINT SOURCES/SINKS PRESENT IN THE FLOW MODEL =   238

 MAXIMUM STEPSIZE WHICH MEETS STABILITY CRITERION OF THE SINK & SOURCE TERM
 = 0.3655    (WHEN MIN. R.F.=1)  AT K=   3, I=   3, J=   1

 MAXIMUM STEPSIZE WHICH MEETS STABILITY CRITERION OF THE DISPERSION TERM
 =  1.735    (WHEN MIN. R.F.=1)  AT K=   7, I=   1, J=   1
     2 CALLS TO GCG PACKAGE FOR TRANSPORT TIME STEP  13 IN FLOW TIME STEP   1 STRESS PERIOD   1
    10 TOTAL ITERATIONS
0WARNING: NUMERICAL OSCILLATION ENCOUNTERED
 ONE OR MORE CELL CONCENTRATIONS LESS THAN CRHOREF
 SMALLEST DENSITY =  0.100E+04
 AT CELL (I,J,K) = (   1,   1,   4)

 
 SOLVING FOR HEAD 
 FLOW MODEL IS STEADY-STATE
 FLOW MODEL CONTAINS CONSTANT-HEAD CELLS


 MAXIMUM STEPSIZE DURING WHICH ANY PARTICLE CANNOT MOVE MORE THAN ONE CELL
 =  1.095    (WHEN MIN. R.F.=1)  AT K=   7, I=   1, J=   2

 MAXIMUM STEPSIZE WHICH MEETS STABILITY CRITERION OF THE ADVECTION TERM
 (FOR PURE FINITE-DIFFERENCE OPTION, MIXELM=0) 
 =  1.094    (WHEN MIN. R.F.=1)  AT K=   4, I=   1, J=   2


 TOTAL NUMBER OF POINT SOURCES/SINKS PRESENT IN THE FLOW MODEL =   238

 MAXIMUM STEPSIZE WHICH MEETS STABILITY CRITERION OF THE SINK & SOURCE TERM
 = 0.3655    (WHEN MIN. R.F.=1)  AT K=   3, I=   3, J=   1

 MAXIMUM STEPSIZE WHICH MEETS STABILITY CRITERION OF THE DISPERSION TERM
 =  1.735    (WHEN MIN. R.F.=1)  AT K=   7, I=   1, J=   1
     2 CALLS TO GCG PACKAGE FOR TRANSPORT TIME STEP  14 IN FLOW TIME STEP   1 STRESS PERIOD   1
    10 TOTAL ITERATIONS
0WARNING: NUMERICAL OSCILLATION ENCOUNTERED
 ONE OR MORE CELL CONCENTRATIONS LESS THAN CRHOREF
 SMALLEST DENSITY =  0.100E+04
 AT CELL (I,J,K) = (   1,   1,   4)

 
 SOLVING FOR HEAD 
 FLOW MODEL IS STEADY-STATE
 FLOW MODEL CONTAINS CONSTANT-HEAD CELLS


 MAXIMUM STEPSIZE DURING WHICH ANY PARTICLE CANNOT MOVE MORE THAN ONE CELL
 =  1.095    (WHEN MIN. R.F.=1)  AT K=   7, I=   1, J=   2

 MAXIMUM STEPSIZE WHICH MEETS STABILITY CRITERION OF THE ADVECTION TERM
 (FOR PURE FINITE-DIFFERENCE OPTION, MIXELM=0) 
 =  1.094    (WHEN MIN. R.F.=1)  AT K=   4, I=   1, J=   2


 TOTAL NUMBER OF POINT SOURCES/SINKS PRESENT IN THE FLOW MODEL =   238

 MAXIMUM STEPSIZE WHICH MEETS STABILITY CRITERION OF THE SINK & SOURCE TERM
 = 0.3655    (WHEN MIN. R.F.=1)  AT K=   3, I=   3, J=   1

 MAXIMUM STEPSIZE WHICH MEETS STABILITY CRITERION OF THE DISPERSION TERM
 =  1.735    (WHEN MIN. R.F.=1)  AT K=   7, I=   1, J=   1
     2 CALLS TO GCG PACKAGE FOR TRANSPORT TIME STEP  15 IN FLOW TIME STEP   1 STRESS PERIOD   1
    10 TOTAL ITERATIONS
0WARNING: NUMERICAL OSCILLATION ENCOUNTERED
 ONE OR MORE CELL CONCENTRATIONS LESS THAN CRHOREF
 SMALLEST DENSITY =  0.100E+04
 AT CELL (I,J,K) = (   1,   1,   4)

 
 SOLVING FOR HEAD 
 FLOW MODEL IS STEADY-STATE
 FLOW MODEL CONTAINS CONSTANT-HEAD CELLS


 MAXIMUM STEPSIZE DURING WHICH ANY PARTICLE CANNOT MOVE MORE THAN ONE CELL
 =  1.095    (WHEN MIN. R.F.=1)  AT K=   7, I=   1, J=   2

 MAXIMUM STEPSIZE WHICH MEETS STABILITY CRITERION OF THE ADVECTION TERM
 (FOR PURE FINITE-DIFFERENCE OPTION, MIXELM=0) 
 =  1.093    (WHEN MIN. R.F.=1)  AT K=   4, I=   1, J=   2


 TOTAL NUMBER OF POINT SOURCES/SINKS PRESENT IN THE FLOW MODEL =   238

 MAXIMUM STEPSIZE WHICH MEETS STABILITY CRITERION OF THE SINK & SOURCE TERM
 = 0.3655    (WHEN MIN. R.F.=1)  AT K=   3, I=   3, J=   1

 MAXIMUM STEPSIZE WHICH MEETS STABILITY CRITERION OF THE DISPERSION TERM
 =  1.734    (WHEN MIN. R.F.=1)  AT K=   7, I=   1, J=   1
     2 CALLS TO GCG PACKAGE FOR TRANSPORT TIME STEP  16 IN FLOW TIME STEP   1 STRESS PERIOD   1
    10 TOTAL ITERATIONS
0WARNING: NUMERICAL OSCILLATION ENCOUNTERED
 ONE OR MORE CELL CONCENTRATIONS LESS THAN CRHOREF
 SMALLEST DENSITY =  0.100E+04
 AT CELL (I,J,K) = (   1,   1,   4)

 
 SOLVING FOR HEAD 
 FLOW MODEL IS STEADY-STATE
 FLOW MODEL CONTAINS CONSTANT-HEAD CELLS


 MAXIMUM STEPSIZE DURING WHICH ANY PARTICLE CANNOT MOVE MORE THAN ONE CELL
 =  1.095    (WHEN MIN. R.F.=1)  AT K=   7, I=   1, J=   2

 MAXIMUM STEPSIZE WHICH MEETS STABILITY CRITERION OF THE ADVECTION TERM
 (FOR PURE FINITE-DIFFERENCE OPTION, MIXELM=0) 
 =  1.093    (WHEN MIN. R.F.=1)  AT K=   4, I=   1, J=   2


 TOTAL NUMBER OF POINT SOURCES/SINKS PRESENT IN THE FLOW MODEL =   238

 MAXIMUM STEPSIZE WHICH MEETS STABILITY CRITERION OF THE SINK & SOURCE TERM
 = 0.3655    (WHEN MIN. R.F.=1)  AT K=   3, I=   3, J=   1

 MAXIMUM STEPSIZE WHICH MEETS STABILITY CRITERION OF THE DISPERSION TERM
 =  1.734    (WHEN MIN. R.F.=1)  AT K=   7, I=   1, J=   1
     2 CALLS TO GCG PACKAGE FOR TRANSPORT TIME STEP  17 IN FLOW TIME STEP   1 STRESS PERIOD   1
    10 TOTAL ITERATIONS
0WARNING: NUMERICAL OSCILLATION ENCOUNTERED
 ONE OR MORE CELL CONCENTRATIONS LESS THAN CRHOREF
 SMALLEST DENSITY =  0.100E+04
 AT CELL (I,J,K) = (   1,   1,   4)

 
 SOLVING FOR HEAD 
 FLOW MODEL IS STEADY-STATE
 FLOW MODEL CONTAINS CONSTANT-HEAD CELLS


 MAXIMUM STEPSIZE DURING WHICH ANY PARTICLE CANNOT MOVE MORE THAN ONE CELL
 =  1.095    (WHEN MIN. R.F.=1)  AT K=   7, I=   1, J=   2

 MAXIMUM STEPSIZE WHICH MEETS STABILITY CRITERION OF THE ADVECTION TERM
 (FOR PURE FINITE-DIFFERENCE OPTION, MIXELM=0) 
 =  1.093    (WHEN MIN. R.F.=1)  AT K=   4, I=   1, J=   2


 TOTAL NUMBER OF POINT SOURCES/SINKS PRESENT IN THE FLOW MODEL =   238

 MAXIMUM STEPSIZE WHICH MEETS STABILITY CRITERION OF THE SINK & SOURCE TERM
 = 0.3655    (WHEN MIN. R.F.=1)  AT K=   3, I=   3, J=   1

 MAXIMUM STEPSIZE WHICH MEETS STABILITY CRITERION OF THE DISPERSION TERM
 =  1.734    (WHEN MIN. R.F.=1)  AT K=   7, I=   1, J=   1
     2 CALLS TO GCG PACKAGE FOR TRANSPORT TIME STEP  18 IN FLOW TIME STEP   1 STRESS PERIOD   1
    10 TOTAL ITERATIONS
0WARNING: NUMERICAL OSCILLATION ENCOUNTERED
 ONE OR MORE CELL CONCENTRATIONS LESS THAN CRHOREF
 SMALLEST DENSITY =  0.100E+04
 AT CELL (I,J,K) = (   1,   1,   4)

 
 SOLVING FOR HEAD 
 FLOW MODEL IS STEADY-STATE
 FLOW MODEL CONTAINS CONSTANT-HEAD CELLS


 MAXIMUM STEPSIZE DURING WHICH ANY PARTICLE CANNOT MOVE MORE THAN ONE CELL
 =  1.095    (WHEN MIN. R.F.=1)  AT K=   7, I=   1, J=   2

 MAXIMUM STEPSIZE WHICH MEETS STABILITY CRITERION OF THE ADVECTION TERM
 (FOR PURE FINITE-DIFFERENCE OPTION, MIXELM=0) 
 =  1.093    (WHEN MIN. R.F.=1)  AT K=   4, I=   1, J=   2


 TOTAL NUMBER OF POINT SOURCES/SINKS PRESENT IN THE FLOW MODEL =   238

 MAXIMUM STEPSIZE WHICH MEETS STABILITY CRITERION OF THE SINK & SOURCE TERM
 = 0.3655    (WHEN MIN. R.F.=1)  AT K=   3, I=   3, J=   1

 MAXIMUM STEPSIZE WHICH MEETS STABILITY CRITERION OF THE DISPERSION TERM
 =  1.734    (WHEN MIN. R.F.=1)  AT K=   7, I=   1, J=   1
     2 CALLS TO GCG PACKAGE FOR TRANSPORT TIME STEP  19 IN FLOW TIME STEP   1 STRESS PERIOD   1
    10 TOTAL ITERATIONS
0WARNING: NUMERICAL OSCILLATION ENCOUNTERED
 ONE OR MORE CELL CONCENTRATIONS LESS THAN CRHOREF
 SMALLEST DENSITY =  0.100E+04
 AT CELL (I,J,K) = (   1,   1,   4)

 
 SOLVING FOR HEAD 
 FLOW MODEL IS STEADY-STATE
 FLOW MODEL CONTAINS CONSTANT-HEAD CELLS


 MAXIMUM STEPSIZE DURING WHICH ANY PARTICLE CANNOT MOVE MORE THAN ONE CELL
 =  1.095    (WHEN MIN. R.F.=1)  AT K=   7, I=   1, J=   2

 MAXIMUM STEPSIZE WHICH MEETS STABILITY CRITERION OF THE ADVECTION TERM
 (FOR PURE FINITE-DIFFERENCE OPTION, MIXELM=0) 
 =  1.093    (WHEN MIN. R.F.=1)  AT K=   4, I=   1, J=   2


 TOTAL NUMBER OF POINT SOURCES/SINKS PRESENT IN THE FLOW MODEL =   238

 MAXIMUM STEPSIZE WHICH MEETS STABILITY CRITERION OF THE SINK & SOURCE TERM
 = 0.3655    (WHEN MIN. R.F.=1)  AT K=   3, I=   3, J=   1

 MAXIMUM STEPSIZE WHICH MEETS STABILITY CRITERION OF THE DISPERSION TERM
 =  1.734    (WHEN MIN. R.F.=1)  AT K=   7, I=   1, J=   1
     2 CALLS TO GCG PACKAGE FOR TRANSPORT TIME STEP  20 IN FLOW TIME STEP   1 STRESS PERIOD   1
    10 TOTAL ITERATIONS
0WARNING: NUMERICAL OSCILLATION ENCOUNTERED
 ONE OR MORE CELL CONCENTRATIONS LESS THAN CRHOREF
 SMALLEST DENSITY =  0.100E+04
 AT CELL (I,J,K) = (   1,   1,   4)

 
 SOLVING FOR HEAD 
 FLOW MODEL IS STEADY-STATE
 FLOW MODEL CONTAINS CONSTANT-HEAD CELLS


 MAXIMUM STEPSIZE DURING WHICH ANY PARTICLE CANNOT MOVE MORE THAN ONE CELL
 =  1.095    (WHEN MIN. R.F.=1)  AT K=   7, I=   1, J=   2

 MAXIMUM STEPSIZE WHICH MEETS STABILITY CRITERION OF THE ADVECTION TERM
 (FOR PURE FINITE-DIFFERENCE OPTION, MIXELM=0) 
 =  1.093    (WHEN MIN. R.F.=1)  AT K=   4, I=   1, J=   2


 TOTAL NUMBER OF POINT SOURCES/SINKS PRESENT IN THE FLOW MODEL =   238

 MAXIMUM STEPSIZE WHICH MEETS STABILITY CRITERION OF THE SINK & SOURCE TERM
 = 0.3655    (WHEN MIN. R.F.=1)  AT K=   3, I=   3, J=   1

 MAXIMUM STEPSIZE WHICH MEETS STABILITY CRITERION OF THE DISPERSION TERM
 =  1.734    (WHEN MIN. R.F.=1)  AT K=   7, I=   1, J=   1
     2 CALLS TO GCG PACKAGE FOR TRANSPORT TIME STEP  21 IN FLOW TIME STEP   1 STRESS PERIOD   1
    10 TOTAL ITERATIONS
0WARNING: NUMERICAL OSCILLATION ENCOUNTERED
 ONE OR MORE CELL CONCENTRATIONS LESS THAN CRHOREF
 SMALLEST DENSITY =  0.100E+04
 AT CELL (I,J,K) = (   1,   1,   4)

 
 SOLVING FOR HEAD 
 FLOW MODEL IS STEADY-STATE
 FLOW MODEL CONTAINS CONSTANT-HEAD CELLS


 MAXIMUM STEPSIZE DURING WHICH ANY PARTICLE CANNOT MOVE MORE THAN ONE CELL
 =  1.095    (WHEN MIN. R.F.=1)  AT K=   7, I=   1, J=   2

 MAXIMUM STEPSIZE WHICH MEETS STABILITY CRITERION OF THE ADVECTION TERM
 (FOR PURE FINITE-DIFFERENCE OPTION, MIXELM=0) 
 =  1.093    (WHEN MIN. R.F.=1)  AT K=   4, I=   1, J=   2


 TOTAL NUMBER OF POINT SOURCES/SINKS PRESENT IN THE FLOW MODEL =   238

 MAXIMUM STEPSIZE WHICH MEETS STABILITY CRITERION OF THE SINK & SOURCE TERM
 = 0.3655    (WHEN MIN. R.F.=1)  AT K=   3, I=   3, J=   1

 MAXIMUM STEPSIZE WHICH MEETS STABILITY CRITERION OF THE DISPERSION TERM
 =  1.734    (WHEN MIN. R.F.=1)  AT K=   7, I=   1, J=   1
     2 CALLS TO GCG PACKAGE FOR TRANSPORT TIME STEP  22 IN FLOW TIME STEP   1 STRESS PERIOD   1
    10 TOTAL ITERATIONS
0WARNING: NUMERICAL OSCILLATION ENCOUNTERED
 ONE OR MORE CELL CONCENTRATIONS LESS THAN CRHOREF
 SMALLEST DENSITY =  0.100E+04
 AT CELL (I,J,K) = (   1,   1,   4)

 
 SOLVING FOR HEAD 
 FLOW MODEL IS STEADY-STATE
 FLOW MODEL CONTAINS CONSTANT-HEAD CELLS


 MAXIMUM STEPSIZE DURING WHICH ANY PARTICLE CANNOT MOVE MORE THAN ONE CELL
 =  1.095    (WHEN MIN. R.F.=1)  AT K=   7, I=   1, J=   2

 MAXIMUM STEPSIZE WHICH MEETS STABILITY CRITERION OF THE ADVECTION TERM
 (FOR PURE FINITE-DIFFERENCE OPTION, MIXELM=0) 
 =  1.093    (WHEN MIN. R.F.=1)  AT K=   4, I=   1, J=   2


 TOTAL NUMBER OF POINT SOURCES/SINKS PRESENT IN THE FLOW MODEL =   238

 MAXIMUM STEPSIZE WHICH MEETS STABILITY CRITERION OF THE SINK & SOURCE TERM
 = 0.3655    (WHEN MIN. R.F.=1)  AT K=   3, I=   3, J=   1

 MAXIMUM STEPSIZE WHICH MEETS STABILITY CRITERION OF THE DISPERSION TERM
 =  1.734    (WHEN MIN. R.F.=1)  AT K=   7, I=   1, J=   1
     2 CALLS TO GCG PACKAGE FOR TRANSPORT TIME STEP  23 IN FLOW TIME STEP   1 STRESS PERIOD   1
    10 TOTAL ITERATIONS
0WARNING: NUMERICAL OSCILLATION ENCOUNTERED
 ONE OR MORE CELL CONCENTRATIONS LESS THAN CRHOREF
 SMALLEST DENSITY =  0.100E+04
 AT CELL (I,J,K) = (   1,   1,   4)

 
 SOLVING FOR HEAD 
 FLOW MODEL IS STEADY-STATE
 FLOW MODEL CONTAINS CONSTANT-HEAD CELLS


 MAXIMUM STEPSIZE DURING WHICH ANY PARTICLE CANNOT MOVE MORE THAN ONE CELL
 =  1.095    (WHEN MIN. R.F.=1)  AT K=   7, I=   1, J=   2

 MAXIMUM STEPSIZE WHICH MEETS STABILITY CRITERION OF THE ADVECTION TERM
 (FOR PURE FINITE-DIFFERENCE OPTION, MIXELM=0) 
 =  1.093    (WHEN MIN. R.F.=1)  AT K=   4, I=   1, J=   2


 TOTAL NUMBER OF POINT SOURCES/SINKS PRESENT IN THE FLOW MODEL =   238

 MAXIMUM STEPSIZE WHICH MEETS STABILITY CRITERION OF THE SINK & SOURCE TERM
 = 0.3655    (WHEN MIN. R.F.=1)  AT K=   3, I=   3, J=   1

 MAXIMUM STEPSIZE WHICH MEETS STABILITY CRITERION OF THE DISPERSION TERM
 =  1.734    (WHEN MIN. R.F.=1)  AT K=   7, I=   1, J=   1
     2 CALLS TO GCG PACKAGE FOR TRANSPORT TIME STEP  24 IN FLOW TIME STEP   1 STRESS PERIOD   1
    10 TOTAL ITERATIONS
0WARNING: NUMERICAL OSCILLATION ENCOUNTERED
 ONE OR MORE CELL CONCENTRATIONS LESS THAN CRHOREF
 SMALLEST DENSITY =  0.100E+04
 AT CELL (I,J,K) = (   1,   1,   4)

 
 SOLVING FOR HEAD 
 FLOW MODEL IS STEADY-STATE
 FLOW MODEL CONTAINS CONSTANT-HEAD CELLS


 MAXIMUM STEPSIZE DURING WHICH ANY PARTICLE CANNOT MOVE MORE THAN ONE CELL
 =  1.095    (WHEN MIN. R.F.=1)  AT K=   7, I=   1, J=   2

 MAXIMUM STEPSIZE WHICH MEETS STABILITY CRITERION OF THE ADVECTION TERM
 (FOR PURE FINITE-DIFFERENCE OPTION, MIXELM=0) 
 =  1.093    (WHEN MIN. R.F.=1)  AT K=   4, I=   1, J=   2


 TOTAL NUMBER OF POINT SOURCES/SINKS PRESENT IN THE FLOW MODEL =   238

 MAXIMUM STEPSIZE WHICH MEETS STABILITY CRITERION OF THE SINK & SOURCE TERM
 = 0.3655    (WHEN MIN. R.F.=1)  AT K=   3, I=   3, J=   1

 MAXIMUM STEPSIZE WHICH MEETS STABILITY CRITERION OF THE DISPERSION TERM
 =  1.734    (WHEN MIN. R.F.=1)  AT K=   7, I=   1, J=   1
     2 CALLS TO GCG PACKAGE FOR TRANSPORT TIME STEP  25 IN FLOW TIME STEP   1 STRESS PERIOD   1
    10 TOTAL ITERATIONS
0WARNING: NUMERICAL OSCILLATION ENCOUNTERED
 ONE OR MORE CELL CONCENTRATIONS LESS THAN CRHOREF
 SMALLEST DENSITY =  0.100E+04
 AT CELL (I,J,K) = (   1,   1,   4)

 
 SOLVING FOR HEAD 
 FLOW MODEL IS STEADY-STATE
 FLOW MODEL CONTAINS CONSTANT-HEAD CELLS


 MAXIMUM STEPSIZE DURING WHICH ANY PARTICLE CANNOT MOVE MORE THAN ONE CELL
 =  1.095    (WHEN MIN. R.F.=1)  AT K=   7, I=   1, J=   2

 MAXIMUM STEPSIZE WHICH MEETS STABILITY CRITERION OF THE ADVECTION TERM
 (FOR PURE FINITE-DIFFERENCE OPTION, MIXELM=0) 
 =  1.093    (WHEN MIN. R.F.=1)  AT K=   4, I=   1, J=   2


 TOTAL NUMBER OF POINT SOURCES/SINKS PRESENT IN THE FLOW MODEL =   238

 MAXIMUM STEPSIZE WHICH MEETS STABILITY CRITERION OF THE SINK & SOURCE TERM
 = 0.3655    (WHEN MIN. R.F.=1)  AT K=   3, I=   3, J=   1

 MAXIMUM STEPSIZE WHICH MEETS STABILITY CRITERION OF THE DISPERSION TERM
 =  1.734    (WHEN MIN. R.F.=1)  AT K=   7, I=   1, J=   1
     2 CALLS TO GCG PACKAGE FOR TRANSPORT TIME STEP  26 IN FLOW TIME STEP   1 STRESS PERIOD   1
    10 TOTAL ITERATIONS
0WARNING: NUMERICAL OSCILLATION ENCOUNTERED
 ONE OR MORE CELL CONCENTRATIONS LESS THAN CRHOREF
 SMALLEST DENSITY =  0.100E+04
 AT CELL (I,J,K) = (   1,   1,   4)

 
 SOLVING FOR HEAD 
 FLOW MODEL IS STEADY-STATE
 FLOW MODEL CONTAINS CONSTANT-HEAD CELLS


 MAXIMUM STEPSIZE DURING WHICH ANY PARTICLE CANNOT MOVE MORE THAN ONE CELL
 =  1.095    (WHEN MIN. R.F.=1)  AT K=   7, I=   1, J=   2

 MAXIMUM STEPSIZE WHICH MEETS STABILITY CRITERION OF THE ADVECTION TERM
 (FOR PURE FINITE-DIFFERENCE OPTION, MIXELM=0) 
 =  1.093    (WHEN MIN. R.F.=1)  AT K=   4, I=   1, J=   2


 TOTAL NUMBER OF POINT SOURCES/SINKS PRESENT IN THE FLOW MODEL =   238

 MAXIMUM STEPSIZE WHICH MEETS STABILITY CRITERION OF THE SINK & SOURCE TERM
 = 0.3655    (WHEN MIN. R.F.=1)  AT K=   3, I=   3, J=   1

 MAXIMUM STEPSIZE WHICH MEETS STABILITY CRITERION OF THE DISPERSION TERM
 =  1.734    (WHEN MIN. R.F.=1)  AT K=   7, I=   1, J=   1
     2 CALLS TO GCG PACKAGE FOR TRANSPORT TIME STEP  27 IN FLOW TIME STEP   1 STRESS PERIOD   1
    10 TOTAL ITERATIONS
0WARNING: NUMERICAL OSCILLATION ENCOUNTERED
 ONE OR MORE CELL CONCENTRATIONS LESS THAN CRHOREF
 SMALLEST DENSITY =  0.100E+04
 AT CELL (I,J,K) = (   1,   1,   4)

 
 SOLVING FOR HEAD 
 FLOW MODEL IS STEADY-STATE
 FLOW MODEL CONTAINS CONSTANT-HEAD CELLS


 MAXIMUM STEPSIZE DURING WHICH ANY PARTICLE CANNOT MOVE MORE THAN ONE CELL
 =  1.095    (WHEN MIN. R.F.=1)  AT K=   7, I=   1, J=   2

 MAXIMUM STEPSIZE WHICH MEETS STABILITY CRITERION OF THE ADVECTION TERM
 (FOR PURE FINITE-DIFFERENCE OPTION, MIXELM=0) 
 =  1.093    (WHEN MIN. R.F.=1)  AT K=   4, I=   1, J=   2


 TOTAL NUMBER OF POINT SOURCES/SINKS PRESENT IN THE FLOW MODEL =   238

 MAXIMUM STEPSIZE WHICH MEETS STABILITY CRITERION OF THE SINK & SOURCE TERM
 = 0.3655    (WHEN MIN. R.F.=1)  AT K=   3, I=   3, J=   1

 MAXIMUM STEPSIZE WHICH MEETS STABILITY CRITERION OF THE DISPERSION TERM
 =  1.734    (WHEN MIN. R.F.=1)  AT K=   7, I=   1, J=   1
     2 CALLS TO GCG PACKAGE FOR TRANSPORT TIME STEP  28 IN FLOW TIME STEP   1 STRESS PERIOD   1
    10 TOTAL ITERATIONS
0WARNING: NUMERICAL OSCILLATION ENCOUNTERED
 ONE OR MORE CELL CONCENTRATIONS LESS THAN CRHOREF
 SMALLEST DENSITY =  0.100E+04
 AT CELL (I,J,K) = (   1,   1,   4)

 
 SOLVING FOR HEAD 
 FLOW MODEL IS STEADY-STATE
 FLOW MODEL CONTAINS CONSTANT-HEAD CELLS


 MAXIMUM STEPSIZE DURING WHICH ANY PARTICLE CANNOT MOVE MORE THAN ONE CELL
 =  1.095    (WHEN MIN. R.F.=1)  AT K=   7, I=   1, J=   2

 MAXIMUM STEPSIZE WHICH MEETS STABILITY CRITERION OF THE ADVECTION TERM
 (FOR PURE FINITE-DIFFERENCE OPTION, MIXELM=0) 
 =  1.093    (WHEN MIN. R.F.=1)  AT K=   4, I=   1, J=   2


 TOTAL NUMBER OF POINT SOURCES/SINKS PRESENT IN THE FLOW MODEL =   238

 MAXIMUM STEPSIZE WHICH MEETS STABILITY CRITERION OF THE SINK & SOURCE TERM
 = 0.3655    (WHEN MIN. R.F.=1)  AT K=   3, I=   3, J=   1

 MAXIMUM STEPSIZE WHICH MEETS STABILITY CRITERION OF THE DISPERSION TERM
 =  1.734    (WHEN MIN. R.F.=1)  AT K=   7, I=   1, J=   1
     2 CALLS TO GCG PACKAGE FOR TRANSPORT TIME STEP  29 IN FLOW TIME STEP   1 STRESS PERIOD   1
    10 TOTAL ITERATIONS
0WARNING: NUMERICAL OSCILLATION ENCOUNTERED
 ONE OR MORE CELL CONCENTRATIONS LESS THAN CRHOREF
 SMALLEST DENSITY =  0.100E+04
 AT CELL (I,J,K) = (   1,   1,   4)

 
 SOLVING FOR HEAD 
 FLOW MODEL IS STEADY-STATE
 FLOW MODEL CONTAINS CONSTANT-HEAD CELLS


 MAXIMUM STEPSIZE DURING WHICH ANY PARTICLE CANNOT MOVE MORE THAN ONE CELL
 =  1.095    (WHEN MIN. R.F.=1)  AT K=   7, I=   1, J=   2

 MAXIMUM STEPSIZE WHICH MEETS STABILITY CRITERION OF THE ADVECTION TERM
 (FOR PURE FINITE-DIFFERENCE OPTION, MIXELM=0) 
 =  1.093    (WHEN MIN. R.F.=1)  AT K=   4, I=   1, J=   2


 TOTAL NUMBER OF POINT SOURCES/SINKS PRESENT IN THE FLOW MODEL =   238

 MAXIMUM STEPSIZE WHICH MEETS STABILITY CRITERION OF THE SINK & SOURCE TERM
 = 0.3655    (WHEN MIN. R.F.=1)  AT K=   3, I=   3, J=   1

 MAXIMUM STEPSIZE WHICH MEETS STABILITY CRITERION OF THE DISPERSION TERM
 =  1.734    (WHEN MIN. R.F.=1)  AT K=   7, I=   1, J=   1
     2 CALLS TO GCG PACKAGE FOR TRANSPORT TIME STEP  30 IN FLOW TIME STEP   1 STRESS PERIOD   1
     9 TOTAL ITERATIONS
0WARNING: NUMERICAL OSCILLATION ENCOUNTERED
 ONE OR MORE CELL CONCENTRATIONS LESS THAN CRHOREF
 SMALLEST DENSITY =  0.100E+04
 AT CELL (I,J,K) = (   1,   1,   4)

 
 SOLVING FOR HEAD 
 FLOW MODEL IS STEADY-STATE
 FLOW MODEL CONTAINS CONSTANT-HEAD CELLS


 MAXIMUM STEPSIZE DURING WHICH ANY PARTICLE CANNOT MOVE MORE THAN ONE CELL
 =  1.095    (WHEN MIN. R.F.=1)  AT K=   7, I=   1, J=   2

 MAXIMUM STEPSIZE WHICH MEETS STABILITY CRITERION OF THE ADVECTION TERM
 (FOR PURE FINITE-DIFFERENCE OPTION, MIXELM=0) 
 =  1.093    (WHEN MIN. R.F.=1)  AT K=   4, I=   1, J=   2


 TOTAL NUMBER OF POINT SOURCES/SINKS PRESENT IN THE FLOW MODEL =   238

 MAXIMUM STEPSIZE WHICH MEETS STABILITY CRITERION OF THE SINK & SOURCE TERM
 = 0.3655    (WHEN MIN. R.F.=1)  AT K=   3, I=   3, J=   1

 MAXIMUM STEPSIZE WHICH MEETS STABILITY CRITERION OF THE DISPERSION TERM
 =  1.734    (WHEN MIN. R.F.=1)  AT K=   7, I=   1, J=   1
     2 CALLS TO GCG PACKAGE FOR TRANSPORT TIME STEP  31 IN FLOW TIME STEP   1 STRESS PERIOD   1
     9 TOTAL ITERATIONS
  MAXIMUM CONCENTRATION CHANGES FOR EACH ITERATION:
  MAX. CHANGE LAYER,ROW,COL MAX. CHANGE LAYER,ROW,COL MAX. CHANGE LAYER,ROW,COL MAX. CHANGE LAYER,ROW,COL MAX. CHANGE LAYER,ROW,COL
 ------------------------------------------------------------------------------------------------------------------------------------
   0.3074E-02 (  4,  3,  8)  0.5074E-03 (  8,  1,  1)  0.5548E-04 (  8,  1,  1)  0.7884E-05 (  7,  1,  1)  0.2160E-05 (  7,  1,  1)
   0.1723E-06 (  7,  1,  1)  0.1403E-08 (  5,  1,  1)  0.8559E-09 (  6,  1,  1)   0.000     (  1,  1,  1)



 >>>>>>>>>>>>>>>>>>>>>>>>>>>>>>>>>>>>>>>>>>>>>>>>>>>>>>>FOR COMPONENT NO. 01<<<<<<<<<<<<<<<<<<<<<<<<<<<<<<<<<<<<<<<<<<<<<<<<<<<<<<<


                                            -------------------------------------------
                                                      TRANSPORT STEP NO.   31
                                            -------------------------------------------

 TOTAL ELAPSED TIME SINCE BEGINNING OF SIMULATION =   30.00000    D   
 .....................................................................

                     CONCENTRATIONS   IN LAYER  1 AT END OF TRANSPORT STEP   31, TIME STEP  1, STRESS PERIOD  1
                     ------------------------------------------------------------------------------------------

           1          2          3          4          5          6          7          8          9         10         11
 .........................................................................................................................
   1    12.0       12.0       12.0       12.0       12.0       12.0       12.0       12.0       12.0       12.0       12.0    
   2    12.0       12.0       12.0       12.0       12.0       12.0       12.0       12.0       12.0       12.0       12.0    
   3    12.0       12.0       12.0       12.0       12.0       12.0       12.0       12.0       12.0       12.0       12.0    

          12         13         14         15         16         17         18         19         20         21         22
 .........................................................................................................................
   1    12.0       12.0       12.0       12.0       12.0       12.0       12.0       12.0       12.0       12.0       12.0    
   2    12.0       12.0       12.0       12.0       12.0       12.0       12.0       12.0       12.0       12.0       12.0    
   3    12.0       12.0       12.0       12.0       12.0       12.0       12.0       12.0       12.0       12.0       12.0    

          23         24         25         26         27         28         29         30         31         32         33
 .........................................................................................................................
   1    12.0       12.0       12.0       12.0       12.0       12.0       12.0       12.0       12.0       12.0       12.0    
   2    12.0       12.0       12.0       12.0       12.0       12.0       12.0       12.0       12.0       12.0       12.0    
   3    12.0       12.0       12.0       12.0       12.0       12.0       12.0       12.0       12.0       12.0       12.0    

          34         35
 ......................
   1    12.0       12.0    
   2    12.0       12.0    
   3    12.0       12.0    

                     CONCENTRATIONS   IN LAYER  2 AT END OF TRANSPORT STEP   31, TIME STEP  1, STRESS PERIOD  1
                     ------------------------------------------------------------------------------------------

           1          2          3          4          5          6          7          8          9         10         11
 .........................................................................................................................
   1    13.7       13.7       13.6       13.5       13.5       13.4       13.3       13.2       13.1       13.0       12.8    
   2  -100.0     -100.0     -100.0     -100.0     -100.0     -100.0     -100.0     -100.0     -100.0     -100.0     -100.0    
   3    10.4       10.5       10.6       10.7       10.8       10.9       11.1       11.2       11.3       11.4       11.5    

          12         13         14         15         16         17         18         19         20         21         22
 .........................................................................................................................
   1    12.6       12.5       12.4       12.2       12.2       12.1       12.1       12.0       12.0       12.0       12.0    
   2  -100.0     -100.0     -100.0     -100.0     -100.0     -100.0     -100.0     -100.0     -100.0     -100.0     -100.0    
   3    11.7       11.8       11.8       11.9       11.9       12.0       12.0       12.0       12.0       12.0       12.0    

          23         24         25         26         27         28         29         30         31         32         33
 .........................................................................................................................
   1    12.0       12.0       12.0       12.0       12.0       12.0       12.0       12.0       12.0       12.0       12.0    
   2  -100.0     -100.0     -100.0     -100.0     -100.0     -100.0     -100.0     -100.0     -100.0     -100.0     -100.0    
   3    12.0       12.0       12.0       12.0       12.0       12.0       12.0       12.0       12.0       12.0       12.0    

          34         35
 ......................
   1    12.0       12.0    
   2  -100.0     -100.0    
   3    12.0       12.0    

                     CONCENTRATIONS   IN LAYER  3 AT END OF TRANSPORT STEP   31, TIME STEP  1, STRESS PERIOD  1
                     ------------------------------------------------------------------------------------------

           1          2          3          4          5          6          7          8          9         10         11
 .........................................................................................................................
   1    15.2       15.2       15.1       15.1       15.0       14.9       14.7       14.5       14.3       14.0       13.7    
   2  -100.0     -100.0     -100.0     -100.0     -100.0     -100.0     -100.0     -100.0     -100.0     -100.0     -100.0    
   3    8.01       8.02       8.04       8.10       8.23       8.52       9.01       9.62       10.2       10.7       11.0    

          12         13         14         15         16         17         18         19         20         21         22
 .........................................................................................................................
   1    13.4       13.1       12.8       12.6       12.4       12.3       12.2       12.1       12.1       12.0       12.0    
   2  -100.0     -100.0     -100.0     -100.0     -100.0     -100.0     -100.0     -100.0     -100.0     -100.0     -100.0    
   3    11.3       11.5       11.6       11.7       11.8       11.9       11.9       12.0       12.0       12.0       12.0    

          23         24         25         26         27         28         29         30         31         32         33
[...]
   2  -100.0     -100.0     -100.0     -100.0     -100.0     -100.0     -100.0     -100.0     -100.0     -100.0     -100.0    
   3    12.0       12.0       12.0       12.0       12.0       12.0       12.0       12.0       12.0       12.0       12.0    

          34         35
 ......................
   1    12.0       12.0    
   2  -100.0     -100.0    
   3    12.0       12.0    

                     CONCENTRATIONS   IN LAYER  4 AT END OF TRANSPORT STEP   31, TIME STEP  1, STRESS PERIOD  1
                     ------------------------------------------------------------------------------------------

           1          2          3          4          5          6          7          8          9         10         11
 .........................................................................................................................
   1    15.7       15.7       15.7       15.6       15.5       15.4       15.3       15.0       14.8       14.4       14.1    
   2  -100.0     -100.0     -100.0     -100.0     -100.0     -100.0     -100.0     -100.0     -100.0     -100.0     -100.0    
   3    8.00       8.00       8.01       8.03       8.13       8.38       8.83       9.42       10.0       10.5       10.9    

          12         13         14         15         16         17         18         19         20         21         22
 .........................................................................................................................
   1    13.7       13.3       13.0       12.7       12.5       12.3       12.2       12.1       12.1       12.0       12.0    
   2  -100.0     -100.0     -100.0     -100.0     -100.0     -100.0     -100.0     -100.0     -100.0     -100.0     -100.0    
   3    11.2       11.4       11.6       11.7       11.8       11.9       11.9       12.0       12.0       12.0       12.0    

          23         24         25         26         27         28         29         30         31         32         33
 .........................................................................................................................
   1    12.0       12.0       12.0       12.0       12.0       12.0       12.0       12.0       12.0       12.0       12.0    
   2  -100.0     -100.0     -100.0     -100.0     -100.0     -100.0     -100.0     -100.0     -100.0     -100.0     -100.0    
   3    12.0       12.0       12.0       12.0       12.0       12.0       12.0       12.0       12.0       12.0       12.0    

          34         35
 ......................
   1    12.0       12.0    
   2  -100.0     -100.0    
   3    12.0       12.0    

                     CONCENTRATIONS   IN LAYER  5 AT END OF TRANSPORT STEP   31, TIME STEP  1, STRESS PERIOD  1
                     ------------------------------------------------------------------------------------------

           1          2          3          4          5          6          7          8          9         10         11
 .........................................................................................................................
   1    15.8       15.8       15.7       15.7       15.6       15.5       15.3       15.1       14.9       14.5       14.2    
   2  -100.0     -100.0     -100.0     -100.0     -100.0     -100.0     -100.0     -100.0     -100.0     -100.0     -100.0    
   3    8.00       8.00       8.00       8.03       8.12       8.36       8.79       9.36       9.95       10.4       10.8    

          12         13         14         15         16         17         18         19         20         21         22
 .........................................................................................................................
   1    13.8       13.4       13.0       12.7       12.5       12.3       12.2       12.1       12.1       12.0       12.0    
   2  -100.0     -100.0     -100.0     -100.0     -100.0     -100.0     -100.0     -100.0     -100.0     -100.0     -100.0    
   3    11.1       11.3       11.5       11.7       11.8       11.9       11.9       12.0       12.0       12.0       12.0    

          23         24         25         26         27         28         29         30         31         32         33
 .........................................................................................................................
   1    12.0       12.0       12.0       12.0       12.0       12.0       12.0       12.0       12.0       12.0       12.0    
   2  -100.0     -100.0     -100.0     -100.0     -100.0     -100.0     -100.0     -100.0     -100.0     -100.0     -100.0    
   3    12.0       12.0       12.0       12.0       12.0       12.0       12.0       12.0       12.0       12.0       12.0    

          34         35
 ......................
   1    12.0       12.0    
   2  -100.0     -100.0    
   3    12.0       12.0    

                     CONCENTRATIONS   IN LAYER  6 AT END OF TRANSPORT STEP   31, TIME STEP  1, STRESS PERIOD  1
                     ------------------------------------------------------------------------------------------

           1          2          3          4          5          6          7          8          9         10         11
 .........................................................................................................................
   1    15.8       15.8       15.7       15.7       15.6       15.5       15.3       15.1       14.8       14.5       14.1    
   2  -100.0     -100.0     -100.0     -100.0     -100.0     -100.0     -100.0     -100.0     -100.0     -100.0     -100.0    
   3    8.00       8.00       8.00       8.03       8.12       8.35       8.78       9.35       9.93       10.4       10.8    

          12         13         14         15         16         17         18         19         20         21         22
 .........................................................................................................................
   1    13.7       13.4       13.0       12.7       12.5       12.3       12.2       12.1       12.1       12.0       12.0    
   2  -100.0     -100.0     -100.0     -100.0     -100.0     -100.0     -100.0     -100.0     -100.0     -100.0     -100.0    
   3    11.1       11.3       11.5       11.7       11.8       11.9       11.9       12.0       12.0       12.0       12.0    

          23         24         25         26         27         28         29         30         31         32         33
 .........................................................................................................................
   1    12.0       12.0       12.0       12.0       12.0       12.0       12.0       12.0       12.0       12.0       12.0    
   2  -100.0     -100.0     -100.0     -100.0     -100.0     -100.0     -100.0     -100.0     -100.0     -100.0     -100.0    
   3    12.0       12.0       12.0       12.0       12.0       12.0       12.0       12.0       12.0       12.0       12.0    

          34         35
 ......................
   1    12.0       12.0    
   2  -100.0     -100.0    
   3    12.0       12.0    

                     CONCENTRATIONS   IN LAYER  7 AT END OF TRANSPORT STEP   31, TIME STEP  1, STRESS PERIOD  1
                     ------------------------------------------------------------------------------------------

           1          2          3          4          5          6          7          8          9         10         11
 .........................................................................................................................
   1    15.7       15.7       15.6       15.6       15.5       15.4       15.2       15.0       14.7       14.4       14.0    
   2  -100.0     -100.0     -100.0     -100.0     -100.0     -100.0     -100.0     -100.0     -100.0     -100.0     -100.0    
   3    8.00       8.00       8.01       8.03       8.12       8.37       8.81       9.39       9.98       10.5       10.9    

          12         13         14         15         16         17         18         19         20         21         22
 .........................................................................................................................
   1    13.6       13.3       12.9       12.7       12.5       12.3       12.2       12.1       12.1       12.0       12.0    
   2  -100.0     -100.0     -100.0     -100.0     -100.0     -100.0     -100.0     -100.0     -100.0     -100.0     -100.0    
   3    11.1       11.4       11.5       11.7       11.8       11.9       11.9       12.0       12.0       12.0       12.0    

          23         24         25         26         27         28         29         30         31         32         33
 .........................................................................................................................
   1    12.0       12.0       12.0       12.0       12.0       12.0       12.0       12.0       12.0       12.0       12.0    
   2  -100.0     -100.0     -100.0     -100.0     -100.0     -100.0     -100.0     -100.0     -100.0     -100.0     -100.0    
   3    12.0       12.0       12.0       12.0       12.0       12.0       12.0       12.0       12.0       12.0       12.0    

          34         35
 ......................
   1    12.0       12.0    
   2  -100.0     -100.0    
   3    12.0       12.0    

                     CONCENTRATIONS   IN LAYER  8 AT END OF TRANSPORT STEP   31, TIME STEP  1, STRESS PERIOD  1
                     ------------------------------------------------------------------------------------------

           1          2          3          4          5          6          7          8          9         10         11
 .........................................................................................................................
   1    15.2       15.1       15.1       15.1       15.0       14.8       14.7       14.5       14.2       13.9       13.6    
   2  -100.0     -100.0     -100.0     -100.0     -100.0     -100.0     -100.0     -100.0     -100.0     -100.0     -100.0    
   3    8.01       8.02       8.04       8.10       8.23       8.51       8.98       9.58       10.2       10.6       11.0    

          12         13         14         15         16         17         18         19         20         21         22
 .........................................................................................................................
   1    13.3       13.0       12.7       12.5       12.3       12.2       12.1       12.1       12.0       12.0       12.0    
   2  -100.0     -100.0     -100.0     -100.0     -100.0     -100.0     -100.0     -100.0     -100.0     -100.0     -100.0    
   3    11.3       11.4       11.6       11.7       11.8       11.9       11.9       12.0       12.0       12.0       12.0    

          23         24         25         26         27         28         29         30         31         32         33
 .........................................................................................................................
   1    12.0       12.0       12.0       12.0       12.0       12.0       12.0       12.0       12.0       12.0       12.0    
   2  -100.0     -100.0     -100.0     -100.0     -100.0     -100.0     -100.0     -100.0     -100.0     -100.0     -100.0    
   3    12.0       12.0       12.0       12.0       12.0       12.0       12.0       12.0       12.0       12.0       12.0    

          34         35
 ......................
   1    12.0       12.0    
   2  -100.0     -100.0    
   3    12.0       12.0    

                     CONCENTRATIONS   IN LAYER  9 AT END OF TRANSPORT STEP   31, TIME STEP  1, STRESS PERIOD  1
                     ------------------------------------------------------------------------------------------

           1          2          3          4          5          6          7          8          9         10         11
 .........................................................................................................................
   1    13.7       13.7       13.6       13.5       13.5       13.4       13.3       13.2       13.1       12.9       12.8    
   2  -100.0     -100.0     -100.0     -100.0     -100.0     -100.0     -100.0     -100.0     -100.0     -100.0     -100.0    
   3    10.4       10.5       10.6       10.7       10.8       10.9       11.0       11.2       11.3       11.4       11.5    

          12         13         14         15         16         17         18         19         20         21         22
 .........................................................................................................................
   1    12.6       12.5       12.3       12.2       12.1       12.1       12.1       12.0       12.0       12.0       12.0    
   2  -100.0     -100.0     -100.0     -100.0     -100.0     -100.0     -100.0     -100.0     -100.0     -100.0     -100.0    
   3    11.6       11.7       11.8       11.9       11.9       12.0       12.0       12.0       12.0       12.0       12.0    

          23         24         25         26         27         28         29         30         31         32         33
 .........................................................................................................................
   1    12.0       12.0       12.0       12.0       12.0       12.0       12.0       12.0       12.0       12.0       12.0    
   2  -100.0     -100.0     -100.0     -100.0     -100.0     -100.0     -100.0     -100.0     -100.0     -100.0     -100.0    
   3    12.0       12.0       12.0       12.0       12.0       12.0       12.0       12.0       12.0       12.0       12.0    

          34         35
 ......................
   1    12.0       12.0    
   2  -100.0     -100.0    
   3    12.0       12.0    

                     CONCENTRATIONS   IN LAYER 10 AT END OF TRANSPORT STEP   31, TIME STEP  1, STRESS PERIOD  1
                     ------------------------------------------------------------------------------------------

           1          2          3          4          5          6          7          8          9         10         11
 .........................................................................................................................
   1    12.0       12.0       12.0       12.0       12.0       12.0       12.0       12.0       12.0       12.0       12.0    
   2    12.0       12.0       12.0       12.0       12.0       12.0       12.0       12.0       12.0       12.0       12.0    
   3    12.0       12.0       12.0       12.0       12.0       12.0       12.0       12.0       12.0       12.0       12.0    

          12         13         14         15         16         17         18         19         20         21         22
 .........................................................................................................................
   1    12.0       12.0       12.0       12.0       12.0       12.0       12.0       12.0       12.0       12.0       12.0    
   2    12.0       12.0       12.0       12.0       12.0       12.0       12.0       12.0       12.0       12.0       12.0    
   3    12.0       12.0       12.0       12.0       12.0       12.0       12.0       12.0       12.0       12.0       12.0    

          23         24         25         26         27         28         29         30         31         32         33
 .........................................................................................................................
   1    12.0       12.0       12.0       12.0       12.0       12.0       12.0       12.0       12.0       12.0       12.0    
   2    12.0       12.0       12.0       12.0       12.0       12.0       12.0       12.0       12.0       12.0       12.0    
   3    12.0       12.0       12.0       12.0       12.0       12.0       12.0       12.0       12.0       12.0       12.0    

          34         35
 ......................
   1    12.0       12.0    
   2    12.0       12.0    
   3    12.0       12.0    

                     CUMULATIVE MASS BUDGETS AT END OF TRANSPORT STEP   31, TIME STEP    1, STRESS PERIOD    1
                     ------------------------------------------------------------------------------------------

                                                             IN                           OUT
                                                      ----------------             ----------------
                               CONSTANT CONCENTRATION:    1147782.                   -1149251.    
                                        CONSTANT HEAD:    0.000000                    0.000000    
                                                WELLS:    464160.0                   -911584.6    
                               1ST/0TH ORDER REACTION:    0.000000                    0.000000    
                               MASS STOR (FLOW MODEL):    0.000000                    0.000000    
                                MASS STORAGE (SOLUTE):    203722.3                   -1085.944    
                                MASS STORAGE (SORBED):    247576.9                   -1319.711    
                            ---------------------------------------------------------------------------
                                              [TOTAL]:    2063241.     KG            -2063241.     KG  

                                                          NET (IN - OUT):   0.2074191E-02
                                                   DISCREPANCY (PERCENT):   0.1005307E-06
0WARNING: NUMERICAL OSCILLATION ENCOUNTERED
 ONE OR MORE CELL CONCENTRATIONS LESS THAN CRHOREF
 SMALLEST DENSITY =  0.100E+04
 AT CELL (I,J,K) = (   1,   1,   4)


 HEAD WILL BE SAVED ON UNIT   51 AT END OF TIME STEP   1, STRESS PERIOD    1
1
  MASS BUDGET FOR ENTIRE MODEL AT END OF TIME STEP  1 IN STRESS PERIOD   1
  ------------------------------------------------------------------------------

     CUMULATIVE MASS      M       RATES FOR THIS TIME STEP      M/T
     ------------------                 ------------------------

           IN:                                      IN:
           ---                                      ---
             STORAGE =           0.0000               STORAGE =           0.0000
       CONSTANT HEAD =    58012664.1942         CONSTANT HEAD =     1933768.4945
               WELLS =    58040447.8835                 WELLS =     1934681.6464
                DCDT =          89.9431                  DCDT =           0.5095

            TOTAL IN =   116053202.0208              TOTAL IN =     3868450.6504

          OUT:                                     OUT:
          ----                                     ----
             STORAGE =           0.0000               STORAGE =           0.0000
       CONSTANT HEAD =    58032487.5510         CONSTANT HEAD =     1934416.3941
               WELLS =    58004941.2423                 WELLS =     1933521.7438
                DCDT =       15773.1975                  DCDT =         512.5113

           TOTAL OUT =   116053201.9909             TOTAL OUT =     3868450.6491

            IN - OUT =       2.9944E-02              IN - OUT =       1.2441E-03

 PERCENT DISCREPANCY =           0.00     PERCENT DISCREPANCY =           0.00



0


          TIME SUMMARY AT END OF TRANSPORT STEP   31 IN TIME STEP    1 IN STRESS PERIOD   1
                    SECONDS     MINUTES      HOURS       DAYS        YEARS
                    -----------------------------------------------------------
  TRANS STEP LENGTH  86314.      1438.6      23.976     0.99900     2.73511E-03
   TIME STEP LENGTH 2.59200E+06  43200.      720.00      30.000     8.21355E-02
 STRESS PERIOD TIME 2.59200E+06  43200.      720.00      30.000     8.21355E-02
         TOTAL TIME 2.59200E+06  43200.      720.00      30.000     8.21355E-02
1
