                                   MODFLOW 6
                U.S. GEOLOGICAL SURVEY MODULAR HYDROLOGIC MODEL
                          GROUNDWATER FLOW MODEL (GWF)
                            VERSION 6.4.2 06/28/2023

   MODFLOW 6 compiled Jul 05 2023 20:31:54 with Intel(R) Fortran Intel(R) 64
   Compiler Classic for applications running on Intel(R) 64, Version 2021.7.0
                             Build 20220726_000000

This software has been approved for release by the U.S. Geological 
Survey (USGS). Although the software has been subjected to rigorous 
review, the USGS reserves the right to update the software as needed 
pursuant to further analysis and review. No warranty, expressed or 
implied, is made by the USGS or the U.S. Government as to the 
functionality of the software and related material nor shall the 
fact of release constitute any such warranty. Furthermore, the 
software is released on condition that neither the USGS nor the U.S. 
Government shall be held liable for any damages resulting from its 
authorized or unauthorized use. Also refer to the USGS Water 
Resources Software User Rights Notice for complete use, copyright, 
and distribution information.


As a work of the United States Government, this USGS product is 
in the public domain within the United States. You can copy, 
modify, distribute, and perform the work, even for commercial 
purposes, all without asking permission. Additionally, USGS 
waives copyright and related rights in the work worldwide 
through CC0 1.0 Universal Public Domain Dedication 
(https://creativecommons.org/publicdomain/zero/1.0/).

The following GNU Lesser General Public License (LGPL) libraries
are used in this USGS product:

    SPARSKIT version 2.0
      ilut, luson, and qsplit 
      (https://www-users.cse.umn.edu/~saad/software/SPARSKIT/)

    RCM - Reverse Cuthill McKee Ordering
      (https://people.math.sc.edu/Burkardt/f_src/rcm/rcm.html)

    BLAS - Basic Linear Algebra Subprograms Level 1
      (https://people.math.sc.edu/Burkardt/f_src/blas1_d/blas1_d.html)

    SPARSEKIT - Sparse Matrix Utility Package
      amux, dperm, dvperm, rperm, and cperm
      (https://people.sc.fsu.edu/~jburkardt/f77_src/sparsekit/sparsekit.html)

The following BSD-3 License libraries are used in this USGS product:

    Modern Fortran DAG Library
      Copyright (c) 2018, Jacob Williams
      All rights reserved.
      (https://github.com/jacobwilliams/daglib)

MODFLOW 6 compiler options: /O2 /heap-arrays:0 /fpe:0 /traceback /nologo /fpp
/c /module:win64\mod_mf6\ /object:win64\obj_mf6\

System command used to initiate simulation:
"C:\Users\924878\Documents\Subsurface flow\bin\mf6.exe"

MODFLOW was compiled using uniform precision.

Real Variables
  KIND: 8
  TINY (smallest non-zero value):    2.225074-308
  HUGE (largest value):    1.797693+308
  PRECISION: 15
  SIZE IN BITS: 64

Integer Variables
  KIND: 4
  HUGE (largest value): 2147483647
  SIZE IN BITS: 32

Long Integer Variables
  KIND: 8
  HUGE (largest value): 9223372036854775807
  SIZE IN BITS: 64

Logical Variables
  KIND: 4
  SIZE IN BITS: 32
 
 NAMEFILE OPTIONS:
    FLOWS WILL BE SAVED TO BUDGET FILE SPECIFIED IN OUTPUT CONTROL
 END NAMEFILE OPTIONS:

 DIS -- STRUCTURED GRID DISCRETIZATION PACKAGE, VERSION 2 : 3/27/2014 - INPUT READ FROM MEMPATH: __INPUT__/MODELBUOYF/DIS                          


 NPF -- NODE PROPERTY FLOW PACKAGE, VERSION 1, 3/30/2015 INPUT READ FROM MEMPATH: __INPUT__/MODELBUOYF/NPF                          

 Setting Discretization Options
 End Setting Discretization Options

 Setting Discretization Dimensions
    NLAY = 10
    NROW = 1
    NCOL = 400
 End Setting Discretization Dimensions

 Setting Discretization Griddata
    DELR set from input file
    DELC set from input file
    TOP set from input file
    BOTM set from input file
 End Setting Discretization Griddata

 Setting NPF Options
    Cell-by-cell flow information will be saved to binary file whenever ICBCFL is not zero.
 End Setting NPF Options

 Setting NPF Griddata
    ICELLTYPE set from input file
    K set from input file
    K33 set from input file
    K22 not provided.  Setting K22 = K.
 End Setting NPF Griddata


 BUY -- Buoyancy Package, Version 1, 5/16/2018 input read from unit 1005


 # File generated by Flopy version 3.4.3 on 11/26/2023 at 22:18:42.
 Processing BUY OPTIONS block
    Reference density has been set to:     1000.00    

 OPENED modelbuoyf.dst
 FILE TYPE:DATA(BINARY)   UNIT 1023   STATUS:REPLACE             
 FORMAT:UNFORMATTED            ACCESS:STREAM              
 ACTION:READWRITE           

    BUY  DENSITY  will be saved to file: modelbuoyf.dst                                                                                                                                                                                                                                                                                                                                                                                                                                                                                                                                                                                                                                                                                                                                                                                                                                                                                                                                                                                                                                                                                                                                                                                                                                                                                                                                                                                                                                                                                                                                                                                                                                                                                                                                                                                                                                                                                                                                                                                                                                                                                                                                                                                                                                                                                                                                                                                                                                                                                                                                                                                                                                                                                                                                                                                                                                                                                                                                                                                                                                                                                                                                                                                                                                                                                                                                                                                                                                                                                                                                                                                                                                                                                                                                                                                                                                                                                                                                                                                                                                                                                                                                                                                                                                                                                                                                                                                                                                                                                                                                                                                                                                                                                                                                                                                                                                                                                                                                                                                                                                                                                                                                                                                          
    opened on unit:    1023
 End of BUY OPTIONS block

 Processing BUY DIMENSIONS block
    NRHOSPECIES = 1
 End of BUY DIMENSIONS block
 Processing BUY PACKAGEDATA block
 End of BUY PACKAGEDATA block

Summary of species information in BUY Package
    SPECIES           DRHODC          CRHOREF            MODEL   AUXSPECIESNAME
          1         0.714300          0.00000       MODELBUOYT    CONCENTRATION

 WEL   -- WEL PACKAGE, VERSION 8, 2/22/2014 INPUT READ FROM UNIT 1008
 # File generated by Flopy version 3.4.3 on 11/26/2023 at 22:18:42.

 PROCESSING WEL OPTIONS
    AUXILIARY WEL VARIABLE: CONCENTRATION   
 END OF WEL OPTIONS

 PROCESSING WEL DIMENSIONS
    MAXBOUND =      10
 END OF WEL DIMENSIONS

 CHD   -- CHD PACKAGE, VERSION 8, 2/22/2014 INPUT READ FROM UNIT 1009
 # File generated by Flopy version 3.4.3 on 11/26/2023 at 22:18:42.

 PROCESSING CHD OPTIONS
    AUXILIARY CHD VARIABLE: CONCENTRATION   
 END OF CHD OPTIONS

 PROCESSING CHD DIMENSIONS
    MAXBOUND =      10
 END OF CHD DIMENSIONS

 IC -- INITIAL CONDITIONS PACKAGE, VERSION 8, 3/28/2015 INPUT READ FROM UNIT 1006
 # File generated by Flopy version 3.4.3 on 11/26/2023 at 22:18:42.
 PROCESSING GRIDDATA

     INITIAL HEAD =   0.000000    
 END PROCESSING GRIDDATA
    BINARY GRID INFORMATION WILL BE WRITTEN TO:
      UNIT NUMBER: 1024
      FILE NAME: modelbuoyf.dis.grb

 OPENED modelbuoyf.dis.grb
 FILE TYPE:DATA(BINARY)   UNIT 1024   STATUS:REPLACE             
 FORMAT:UNFORMATTED            ACCESS:STREAM              
 ACTION:READWRITE           

      THE LAST TIME STEP WILL BE PRINTED
      THE LAST TIME STEP WILL BE PRINTED
 # File generated by Flopy version 3.4.3 on 11/26/2023 at 22:18:42.

 PROCESSING OC OPTIONS

    BUDGET INFORMATION WILL BE WRITTEN TO:
      UNIT NUMBER: 1025
      FILE NAME: modelbuoyf.cbc

 OPENED modelbuoyf.cbc
 FILE TYPE:DATA(BINARY)   UNIT 1025   STATUS:REPLACE             
 FORMAT:UNFORMATTED            ACCESS:STREAM              
 ACTION:READWRITE           

    HEAD INFORMATION WILL BE WRITTEN TO:
      UNIT NUMBER: 1026
      FILE NAME: modelbuoyf.hds

 OPENED modelbuoyf.hds
 FILE TYPE:DATA(BINARY)   UNIT 1026   STATUS:REPLACE             
 FORMAT:UNFORMATTED            ACCESS:STREAM              
 ACTION:READWRITE           

 END OF OC OPTIONS

start timestep kper="1" kstp="1" mode="normal"


 BEGIN READING OUTPUT CONTROL FOR STRESS PERIOD 1
      ALL TIME STEPS WILL BE SAVED
      ALL TIME STEPS WILL BE SAVED

 END READING OUTPUT CONTROL FOR STRESS PERIOD 1
 UBDSV1 SAVING     FLOW-JA-FACE ON UNIT   1025 AT TIME STEP      1, STRESS PERIOD      1
 UBDSV06 SAVING              WEL IN MODEL MODELBUOYF       PACKAGE MODELBUOYF      CONNECTED TO MODEL MODELBUOYF       PACKAGE WEL1             ON UNIT   1025 AT TIME STEP      1, STRESS PERIOD      1
 UBDSV06 SAVING              CHD IN MODEL MODELBUOYF       PACKAGE MODELBUOYF      CONNECTED TO MODEL MODELBUOYF       PACKAGE CHD1             ON UNIT   1025 AT TIME STEP      1, STRESS PERIOD      1

 DENSITY WILL BE SAVED ON UNIT 1023 AT END OF TIME STEP    1, STRESS PERIOD    1

 HEAD WILL BE SAVED ON UNIT 1026 AT END OF TIME STEP    1, STRESS PERIOD    1

end timestep


start timestep kper="1" kstp="2" mode="normal"

 UBDSV1 SAVING     FLOW-JA-FACE ON UNIT   1025 AT TIME STEP      2, STRESS PERIOD      1
 UBDSV06 SAVING              WEL IN MODEL MODELBUOYF       PACKAGE MODELBUOYF      CONNECTED TO MODEL MODELBUOYF       PACKAGE WEL1             ON UNIT   1025 AT TIME STEP      2, STRESS PERIOD      1
 UBDSV06 SAVING              CHD IN MODEL MODELBUOYF       PACKAGE MODELBUOYF      CONNECTED TO MODEL MODELBUOYF       PACKAGE CHD1             ON UNIT   1025 AT TIME STEP      2, STRESS PERIOD      1

 DENSITY WILL BE SAVED ON UNIT 1023 AT END OF TIME STEP    2, STRESS PERIOD    1

 HEAD WILL BE SAVED ON UNIT 1026 AT END OF TIME STEP    2, STRESS PERIOD    1

end timestep


start timestep kper="1" kstp="3" mode="normal"

 UBDSV1 SAVING     FLOW-JA-FACE ON UNIT   1025 AT TIME STEP      3, STRESS PERIOD      1
 UBDSV06 SAVING              WEL IN MODEL MODELBUOYF       PACKAGE MODELBUOYF      CONNECTED TO MODEL MODELBUOYF       PACKAGE WEL1             ON UNIT   1025 AT TIME STEP      3, STRESS PERIOD      1
 UBDSV06 SAVING              CHD IN MODEL MODELBUOYF       PACKAGE MODELBUOYF      CONNECTED TO MODEL MODELBUOYF       PACKAGE CHD1             ON UNIT   1025 AT TIME STEP      3, STRESS PERIOD      1

 DENSITY WILL BE SAVED ON UNIT 1023 AT END OF TIME STEP    3, STRESS PERIOD    1

 HEAD WILL BE SAVED ON UNIT 1026 AT END OF TIME STEP    3, STRESS PERIOD    1

end timestep


start timestep kper="1" kstp="4" mode="normal"

 UBDSV1 SAVING     FLOW-JA-FACE ON UNIT   1025 AT TIME STEP      4, STRESS PERIOD      1
 UBDSV06 SAVING              WEL IN MODEL MODELBUOYF       PACKAGE MODELBUOYF      CONNECTED TO MODEL MODELBUOYF       PACKAGE WEL1             ON UNIT   1025 AT TIME STEP      4, STRESS PERIOD      1
 UBDSV06 SAVING              CHD IN MODEL MODELBUOYF       PACKAGE MODELBUOYF      CONNECTED TO MODEL MODELBUOYF       PACKAGE CHD1             ON UNIT   1025 AT TIME STEP      4, STRESS PERIOD      1

 DENSITY WILL BE SAVED ON UNIT 1023 AT END OF TIME STEP    4, STRESS PERIOD    1

 HEAD WILL BE SAVED ON UNIT 1026 AT END OF TIME STEP    4, STRESS PERIOD    1

end timestep


start timestep kper="1" kstp="5" mode="normal"

 UBDSV1 SAVING     FLOW-JA-FACE ON UNIT   1025 AT TIME STEP      5, STRESS PERIOD      1
 UBDSV06 SAVING              WEL IN MODEL MODELBUOYF       PACKAGE MODELBUOYF      CONNECTED TO MODEL MODELBUOYF       PACKAGE WEL1             ON UNIT   1025 AT TIME STEP      5, STRESS PERIOD      1
 UBDSV06 SAVING              CHD IN MODEL MODELBUOYF       PACKAGE MODELBUOYF      CONNECTED TO MODEL MODELBUOYF       PACKAGE CHD1             ON UNIT   1025 AT TIME STEP      5, STRESS PERIOD      1

 DENSITY WILL BE SAVED ON UNIT 1023 AT END OF TIME STEP    5, STRESS PERIOD    1

 HEAD WILL BE SAVED ON UNIT 1026 AT END OF TIME STEP    5, STRESS PERIOD    1

end timestep


start timestep kper="1" kstp="6" mode="normal"

 UBDSV1 SAVING     FLOW-JA-FACE ON UNIT   1025 AT TIME STEP      6, STRESS PERIOD      1
 UBDSV06 SAVING              WEL IN MODEL MODELBUOYF       PACKAGE MODELBUOYF      CONNECTED TO MODEL MODELBUOYF       PACKAGE WEL1             ON UNIT   1025 AT TIME STEP      6, STRESS PERIOD      1
 UBDSV06 SAVING              CHD IN MODEL MODELBUOYF       PACKAGE MODELBUOYF      CONNECTED TO MODEL MODELBUOYF       PACKAGE CHD1             ON UNIT   1025 AT TIME STEP      6, STRESS PERIOD      1

 DENSITY WILL BE SAVED ON UNIT 1023 AT END OF TIME STEP    6, STRESS PERIOD    1

 HEAD WILL BE SAVED ON UNIT 1026 AT END OF TIME STEP    6, STRESS PERIOD    1

end timestep


start timestep kper="1" kstp="7" mode="normal"

 UBDSV1 SAVING     FLOW-JA-FACE ON UNIT   1025 AT TIME STEP      7, STRESS PERIOD      1
 UBDSV06 SAVING              WEL IN MODEL MODELBUOYF       PACKAGE MODELBUOYF      CONNECTED TO MODEL MODELBUOYF       PACKAGE WEL1             ON UNIT   1025 AT TIME STEP      7, STRESS PERIOD      1
 UBDSV06 SAVING              CHD IN MODEL MODELBUOYF       PACKAGE MODELBUOYF      CONNECTED TO MODEL MODELBUOYF       PACKAGE CHD1             ON UNIT   1025 AT TIME STEP      7, STRESS PERIOD      1

 DENSITY WILL BE SAVED ON UNIT 1023 AT END OF TIME STEP    7, STRESS PERIOD    1

 HEAD WILL BE SAVED ON UNIT 1026 AT END OF TIME STEP    7, STRESS PERIOD    1

end timestep


start timestep kper="1" kstp="8" mode="normal"

 UBDSV1 SAVING     FLOW-JA-FACE ON UNIT   1025 AT TIME STEP      8, STRESS PERIOD      1
 UBDSV06 SAVING              WEL IN MODEL MODELBUOYF       PACKAGE MODELBUOYF      CONNECTED TO MODEL MODELBUOYF       PACKAGE WEL1             ON UNIT   1025 AT TIME STEP      8, STRESS PERIOD      1
 UBDSV06 SAVING              CHD IN MODEL MODELBUOYF       PACKAGE MODELBUOYF      CONNECTED TO MODEL MODELBUOYF       PACKAGE CHD1             ON UNIT   1025 AT TIME STEP      8, STRESS PERIOD      1

 DENSITY WILL BE SAVED ON UNIT 1023 AT END OF TIME STEP    8, STRESS PERIOD    1

 HEAD WILL BE SAVED ON UNIT 1026 AT END OF TIME STEP    8, STRESS PERIOD    1

end timestep


start timestep kper="1" kstp="9" mode="normal"

 UBDSV1 SAVING     FLOW-JA-FACE ON UNIT   1025 AT TIME STEP      9, STRESS PERIOD      1
 UBDSV06 SAVING              WEL IN MODEL MODELBUOYF       PACKAGE MODELBUOYF      CONNECTED TO MODEL MODELBUOYF       PACKAGE WEL1             ON UNIT   1025 AT TIME STEP      9, STRESS PERIOD      1
 UBDSV06 SAVING              CHD IN MODEL MODELBUOYF       PACKAGE MODELBUOYF      CONNECTED TO MODEL MODELBUOYF       PACKAGE CHD1             ON UNIT   1025 AT TIME STEP      9, STRESS PERIOD      1

 DENSITY WILL BE SAVED ON UNIT 1023 AT END OF TIME STEP    9, STRESS PERIOD    1

 HEAD WILL BE SAVED ON UNIT 1026 AT END OF TIME STEP    9, STRESS PERIOD    1

end timestep


start timestep kper="1" kstp="10" mode="normal"

 UBDSV1 SAVING     FLOW-JA-FACE ON UNIT   1025 AT TIME STEP     10, STRESS PERIOD      1
 UBDSV06 SAVING              WEL IN MODEL MODELBUOYF       PACKAGE MODELBUOYF      CONNECTED TO MODEL MODELBUOYF       PACKAGE WEL1             ON UNIT   1025 AT TIME STEP     10, STRESS PERIOD      1
 UBDSV06 SAVING              CHD IN MODEL MODELBUOYF       PACKAGE MODELBUOYF      CONNECTED TO MODEL MODELBUOYF       PACKAGE CHD1             ON UNIT   1025 AT TIME STEP     10, STRESS PERIOD      1

 DENSITY WILL BE SAVED ON UNIT 1023 AT END OF TIME STEP   10, STRESS PERIOD    1

 HEAD WILL BE SAVED ON UNIT 1026 AT END OF TIME STEP   10, STRESS PERIOD    1

end timestep


start timestep kper="1" kstp="11" mode="normal"

 UBDSV1 SAVING     FLOW-JA-FACE ON UNIT   1025 AT TIME STEP     11, STRESS PERIOD      1
 UBDSV06 SAVING              WEL IN MODEL MODELBUOYF       PACKAGE MODELBUOYF      CONNECTED TO MODEL MODELBUOYF       PACKAGE WEL1             ON UNIT   1025 AT TIME STEP     11, STRESS PERIOD      1
 UBDSV06 SAVING              CHD IN MODEL MODELBUOYF       PACKAGE MODELBUOYF      CONNECTED TO MODEL MODELBUOYF       PACKAGE CHD1             ON UNIT   1025 AT TIME STEP     11, STRESS PERIOD      1

 DENSITY WILL BE SAVED ON UNIT 1023 AT END OF TIME STEP   11, STRESS PERIOD    1

 HEAD WILL BE SAVED ON UNIT 1026 AT END OF TIME STEP   11, STRESS PERIOD    1

end timestep


start timestep kper="1" kstp="12" mode="normal"

 UBDSV1 SAVING     FLOW-JA-FACE ON UNIT   1025 AT TIME STEP     12, STRESS PERIOD      1
 UBDSV06 SAVING              WEL IN MODEL MODELBUOYF       PACKAGE MODELBUOYF      CONNECTED TO MODEL MODELBUOYF       PACKAGE WEL1             ON UNIT   1025 AT TIME STEP     12, STRESS PERIOD      1
 UBDSV06 SAVING              CHD IN MODEL MODELBUOYF       PACKAGE MODELBUOYF      CONNECTED TO MODEL MODELBUOYF       PACKAGE CHD1             ON UNIT   1025 AT TIME STEP     12, STRESS PERIOD      1

 DENSITY WILL BE SAVED ON UNIT 1023 AT END OF TIME STEP   12, STRESS PERIOD    1

 HEAD WILL BE SAVED ON UNIT 1026 AT END OF TIME STEP   12, STRESS PERIOD    1

end timestep


start timestep kper="1" kstp="13" mode="normal"

 UBDSV1 SAVING     FLOW-JA-FACE ON UNIT   1025 AT TIME STEP     13, STRESS PERIOD      1
 UBDSV06 SAVING              WEL IN MODEL MODELBUOYF       PACKAGE MODELBUOYF      CONNECTED TO MODEL MODELBUOYF       PACKAGE WEL1             ON UNIT   1025 AT TIME STEP     13, STRESS PERIOD      1
 UBDSV06 SAVING              CHD IN MODEL MODELBUOYF       PACKAGE MODELBUOYF      CONNECTED TO MODEL MODELBUOYF       PACKAGE CHD1             ON UNIT   1025 AT TIME STEP     13, STRESS PERIOD      1

 DENSITY WILL BE SAVED ON UNIT 1023 AT END OF TIME STEP   13, STRESS PERIOD    1

 HEAD WILL BE SAVED ON UNIT 1026 AT END OF TIME STEP   13, STRESS PERIOD    1

end timestep


start timestep kper="1" kstp="14" mode="normal"

 UBDSV1 SAVING     FLOW-JA-FACE ON UNIT   1025 AT TIME STEP     14, STRESS PERIOD      1
 UBDSV06 SAVING              WEL IN MODEL MODELBUOYF       PACKAGE MODELBUOYF      CONNECTED TO MODEL MODELBUOYF       PACKAGE WEL1             ON UNIT   1025 AT TIME STEP     14, STRESS PERIOD      1
 UBDSV06 SAVING              CHD IN MODEL MODELBUOYF       PACKAGE MODELBUOYF      CONNECTED TO MODEL MODELBUOYF       PACKAGE CHD1             ON UNIT   1025 AT TIME STEP     14, STRESS PERIOD      1

 DENSITY WILL BE SAVED ON UNIT 1023 AT END OF TIME STEP   14, STRESS PERIOD    1

 HEAD WILL BE SAVED ON UNIT 1026 AT END OF TIME STEP   14, STRESS PERIOD    1

end timestep


start timestep kper="1" kstp="15" mode="normal"

 UBDSV1 SAVING     FLOW-JA-FACE ON UNIT   1025 AT TIME STEP     15, STRESS PERIOD      1
 UBDSV06 SAVING              WEL IN MODEL MODELBUOYF       PACKAGE MODELBUOYF      CONNECTED TO MODEL MODELBUOYF       PACKAGE WEL1             ON UNIT   1025 AT TIME STEP     15, STRESS PERIOD      1
 UBDSV06 SAVING              CHD IN MODEL MODELBUOYF       PACKAGE MODELBUOYF      CONNECTED TO MODEL MODELBUOYF       PACKAGE CHD1             ON UNIT   1025 AT TIME STEP     15, STRESS PERIOD      1

 DENSITY WILL BE SAVED ON UNIT 1023 AT END OF TIME STEP   15, STRESS PERIOD    1

 HEAD WILL BE SAVED ON UNIT 1026 AT END OF TIME STEP   15, STRESS PERIOD    1

end timestep


start timestep kper="1" kstp="16" mode="normal"

 UBDSV1 SAVING     FLOW-JA-FACE ON UNIT   1025 AT TIME STEP     16, STRESS PERIOD      1
 UBDSV06 SAVING              WEL IN MODEL MODELBUOYF       PACKAGE MODELBUOYF      CONNECTED TO MODEL MODELBUOYF       PACKAGE WEL1             ON UNIT   1025 AT TIME STEP     16, STRESS PERIOD      1
 UBDSV06 SAVING              CHD IN MODEL MODELBUOYF       PACKAGE MODELBUOYF      CONNECTED TO MODEL MODELBUOYF       PACKAGE CHD1             ON UNIT   1025 AT TIME STEP     16, STRESS PERIOD      1

 DENSITY WILL BE SAVED ON UNIT 1023 AT END OF TIME STEP   16, STRESS PERIOD    1

 HEAD WILL BE SAVED ON UNIT 1026 AT END OF TIME STEP   16, STRESS PERIOD    1

end timestep


start timestep kper="1" kstp="17" mode="normal"

 UBDSV1 SAVING     FLOW-JA-FACE ON UNIT   1025 AT TIME STEP     17, STRESS PERIOD      1
 UBDSV06 SAVING              WEL IN MODEL MODELBUOYF       PACKAGE MODELBUOYF      CONNECTED TO MODEL MODELBUOYF       PACKAGE WEL1             ON UNIT   1025 AT TIME STEP     17, STRESS PERIOD      1
 UBDSV06 SAVING              CHD IN MODEL MODELBUOYF       PACKAGE MODELBUOYF      CONNECTED TO MODEL MODELBUOYF       PACKAGE CHD1             ON UNIT   1025 AT TIME STEP     17, STRESS PERIOD      1

 DENSITY WILL BE SAVED ON UNIT 1023 AT END OF TIME STEP   17, STRESS PERIOD    1

 HEAD WILL BE SAVED ON UNIT 1026 AT END OF TIME STEP   17, STRESS PERIOD    1

end timestep


start timestep kper="1" kstp="18" mode="normal"

 UBDSV1 SAVING     FLOW-JA-FACE ON UNIT   1025 AT TIME STEP     18, STRESS PERIOD      1
 UBDSV06 SAVING              WEL IN MODEL MODELBUOYF       PACKAGE MODELBUOYF      CONNECTED TO MODEL MODELBUOYF       PACKAGE WEL1             ON UNIT   1025 AT TIME STEP     18, STRESS PERIOD      1
 UBDSV06 SAVING              CHD IN MODEL MODELBUOYF       PACKAGE MODELBUOYF      CONNECTED TO MODEL MODELBUOYF       PACKAGE CHD1             ON UNIT   1025 AT TIME STEP     18, STRESS PERIOD      1

 DENSITY WILL BE SAVED ON UNIT 1023 AT END OF TIME STEP   18, STRESS PERIOD    1

 HEAD WILL BE SAVED ON UNIT 1026 AT END OF TIME STEP   18, STRESS PERIOD    1

end timestep


start timestep kper="1" kstp="19" mode="normal"

 UBDSV1 SAVING     FLOW-JA-FACE ON UNIT   1025 AT TIME STEP     19, STRESS PERIOD      1
 UBDSV06 SAVING              WEL IN MODEL MODELBUOYF       PACKAGE MODELBUOYF      CONNECTED TO MODEL MODELBUOYF       PACKAGE WEL1             ON UNIT   1025 AT TIME STEP     19, STRESS PERIOD      1
 UBDSV06 SAVING              CHD IN MODEL MODELBUOYF       PACKAGE MODELBUOYF      CONNECTED TO MODEL MODELBUOYF       PACKAGE CHD1             ON UNIT   1025 AT TIME STEP     19, STRESS PERIOD      1

 DENSITY WILL BE SAVED ON UNIT 1023 AT END OF TIME STEP   19, STRESS PERIOD    1

 HEAD WILL BE SAVED ON UNIT 1026 AT END OF TIME STEP   19, STRESS PERIOD    1

end timestep


start timestep kper="1" kstp="20" mode="normal"

 UBDSV1 SAVING     FLOW-JA-FACE ON UNIT   1025 AT TIME STEP     20, STRESS PERIOD      1
 UBDSV06 SAVING              WEL IN MODEL MODELBUOYF       PACKAGE MODELBUOYF      CONNECTED TO MODEL MODELBUOYF       PACKAGE WEL1             ON UNIT   1025 AT TIME STEP     20, STRESS PERIOD      1
 UBDSV06 SAVING              CHD IN MODEL MODELBUOYF       PACKAGE MODELBUOYF      CONNECTED TO MODEL MODELBUOYF       PACKAGE CHD1             ON UNIT   1025 AT TIME STEP     20, STRESS PERIOD      1

 DENSITY WILL BE SAVED ON UNIT 1023 AT END OF TIME STEP   20, STRESS PERIOD    1

 HEAD WILL BE SAVED ON UNIT 1026 AT END OF TIME STEP   20, STRESS PERIOD    1

end timestep


start timestep kper="1" kstp="21" mode="normal"

 UBDSV1 SAVING     FLOW-JA-FACE ON UNIT   1025 AT TIME STEP     21, STRESS PERIOD      1
 UBDSV06 SAVING              WEL IN MODEL MODELBUOYF       PACKAGE MODELBUOYF      CONNECTED TO MODEL MODELBUOYF       PACKAGE WEL1             ON UNIT   1025 AT TIME STEP     21, STRESS PERIOD      1
 UBDSV06 SAVING              CHD IN MODEL MODELBUOYF       PACKAGE MODELBUOYF      CONNECTED TO MODEL MODELBUOYF       PACKAGE CHD1             ON UNIT   1025 AT TIME STEP     21, STRESS PERIOD      1

 DENSITY WILL BE SAVED ON UNIT 1023 AT END OF TIME STEP   21, STRESS PERIOD    1

 HEAD WILL BE SAVED ON UNIT 1026 AT END OF TIME STEP   21, STRESS PERIOD    1

end timestep


start timestep kper="1" kstp="22" mode="normal"

 UBDSV1 SAVING     FLOW-JA-FACE ON UNIT   1025 AT TIME STEP     22, STRESS PERIOD      1
 UBDSV06 SAVING              WEL IN MODEL MODELBUOYF       PACKAGE MODELBUOYF      CONNECTED TO MODEL MODELBUOYF       PACKAGE WEL1             ON UNIT   1025 AT TIME STEP     22, STRESS PERIOD      1
 UBDSV06 SAVING              CHD IN MODEL MODELBUOYF       PACKAGE MODELBUOYF      CONNECTED TO MODEL MODELBUOYF       PACKAGE CHD1             ON UNIT   1025 AT TIME STEP     22, STRESS PERIOD      1

 DENSITY WILL BE SAVED ON UNIT 1023 AT END OF TIME STEP   22, STRESS PERIOD    1

 HEAD WILL BE SAVED ON UNIT 1026 AT END OF TIME STEP   22, STRESS PERIOD    1

end timestep


start timestep kper="1" kstp="23" mode="normal"

 UBDSV1 SAVING     FLOW-JA-FACE ON UNIT   1025 AT TIME STEP     23, STRESS PERIOD      1
 UBDSV06 SAVING              WEL IN MODEL MODELBUOYF       PACKAGE MODELBUOYF      CONNECTED TO MODEL MODELBUOYF       PACKAGE WEL1             ON UNIT   1025 AT TIME STEP     23, STRESS PERIOD      1
 UBDSV06 SAVING              CHD IN MODEL MODELBUOYF       PACKAGE MODELBUOYF      CONNECTED TO MODEL MODELBUOYF       PACKAGE CHD1             ON UNIT   1025 AT TIME STEP     23, STRESS PERIOD      1

 DENSITY WILL BE SAVED ON UNIT 1023 AT END OF TIME STEP   23, STRESS PERIOD    1

 HEAD WILL BE SAVED ON UNIT 1026 AT END OF TIME STEP   23, STRESS PERIOD    1

end timestep


start timestep kper="1" kstp="24" mode="normal"

 UBDSV1 SAVING     FLOW-JA-FACE ON UNIT   1025 AT TIME STEP     24, STRESS PERIOD      1
 UBDSV06 SAVING              WEL IN MODEL MODELBUOYF       PACKAGE MODELBUOYF      CONNECTED TO MODEL MODELBUOYF       PACKAGE WEL1             ON UNIT   1025 AT TIME STEP     24, STRESS PERIOD      1
 UBDSV06 SAVING              CHD IN MODEL MODELBUOYF       PACKAGE MODELBUOYF      CONNECTED TO MODEL MODELBUOYF       PACKAGE CHD1             ON UNIT   1025 AT TIME STEP     24, STRESS PERIOD      1

 DENSITY WILL BE SAVED ON UNIT 1023 AT END OF TIME STEP   24, STRESS PERIOD    1

 HEAD WILL BE SAVED ON UNIT 1026 AT END OF TIME STEP   24, STRESS PERIOD    1

end timestep


start timestep kper="1" kstp="25" mode="normal"

 UBDSV1 SAVING     FLOW-JA-FACE ON UNIT   1025 AT TIME STEP     25, STRESS PERIOD      1
 UBDSV06 SAVING              WEL IN MODEL MODELBUOYF       PACKAGE MODELBUOYF      CONNECTED TO MODEL MODELBUOYF       PACKAGE WEL1             ON UNIT   1025 AT TIME STEP     25, STRESS PERIOD      1
 UBDSV06 SAVING              CHD IN MODEL MODELBUOYF       PACKAGE MODELBUOYF      CONNECTED TO MODEL MODELBUOYF       PACKAGE CHD1             ON UNIT   1025 AT TIME STEP     25, STRESS PERIOD      1

 DENSITY WILL BE SAVED ON UNIT 1023 AT END OF TIME STEP   25, STRESS PERIOD    1

 HEAD WILL BE SAVED ON UNIT 1026 AT END OF TIME STEP   25, STRESS PERIOD    1

end timestep


start timestep kper="1" kstp="26" mode="normal"

 UBDSV1 SAVING     FLOW-JA-FACE ON UNIT   1025 AT TIME STEP     26, STRESS PERIOD      1
 UBDSV06 SAVING              WEL IN MODEL MODELBUOYF       PACKAGE MODELBUOYF      CONNECTED TO MODEL MODELBUOYF       PACKAGE WEL1             ON UNIT   1025 AT TIME STEP     26, STRESS PERIOD      1
 UBDSV06 SAVING              CHD IN MODEL MODELBUOYF       PACKAGE MODELBUOYF      CONNECTED TO MODEL MODELBUOYF       PACKAGE CHD1             ON UNIT   1025 AT TIME STEP     26, STRESS PERIOD      1

 DENSITY WILL BE SAVED ON UNIT 1023 AT END OF TIME STEP   26, STRESS PERIOD    1

 HEAD WILL BE SAVED ON UNIT 1026 AT END OF TIME STEP   26, STRESS PERIOD    1

end timestep


start timestep kper="1" kstp="27" mode="normal"

 UBDSV1 SAVING     FLOW-JA-FACE ON UNIT   1025 AT TIME STEP     27, STRESS PERIOD      1
 UBDSV06 SAVING              WEL IN MODEL MODELBUOYF       PACKAGE MODELBUOYF      CONNECTED TO MODEL MODELBUOYF       PACKAGE WEL1             ON UNIT   1025 AT TIME STEP     27, STRESS PERIOD      1
 UBDSV06 SAVING              CHD IN MODEL MODELBUOYF       PACKAGE MODELBUOYF      CONNECTED TO MODEL MODELBUOYF       PACKAGE CHD1             ON UNIT   1025 AT TIME STEP     27, STRESS PERIOD      1

 DENSITY WILL BE SAVED ON UNIT 1023 AT END OF TIME STEP   27, STRESS PERIOD    1

 HEAD WILL BE SAVED ON UNIT 1026 AT END OF TIME STEP   27, STRESS PERIOD    1

end timestep


start timestep kper="1" kstp="28" mode="normal"

 UBDSV1 SAVING     FLOW-JA-FACE ON UNIT   1025 AT TIME STEP     28, STRESS PERIOD      1
 UBDSV06 SAVING              WEL IN MODEL MODELBUOYF       PACKAGE MODELBUOYF      CONNECTED TO MODEL MODELBUOYF       PACKAGE WEL1             ON UNIT   1025 AT TIME STEP     28, STRESS PERIOD      1
 UBDSV06 SAVING              CHD IN MODEL MODELBUOYF       PACKAGE MODELBUOYF      CONNECTED TO MODEL MODELBUOYF       PACKAGE CHD1             ON UNIT   1025 AT TIME STEP     28, STRESS PERIOD      1

 DENSITY WILL BE SAVED ON UNIT 1023 AT END OF TIME STEP   28, STRESS PERIOD    1

 HEAD WILL BE SAVED ON UNIT 1026 AT END OF TIME STEP   28, STRESS PERIOD    1

end timestep


start timestep kper="1" kstp="29" mode="normal"

 UBDSV1 SAVING     FLOW-JA-FACE ON UNIT   1025 AT TIME STEP     29, STRESS PERIOD      1
 UBDSV06 SAVING              WEL IN MODEL MODELBUOYF       PACKAGE MODELBUOYF      CONNECTED TO MODEL MODELBUOYF       PACKAGE WEL1             ON UNIT   1025 AT TIME STEP     29, STRESS PERIOD      1
 UBDSV06 SAVING              CHD IN MODEL MODELBUOYF       PACKAGE MODELBUOYF      CONNECTED TO MODEL MODELBUOYF       PACKAGE CHD1             ON UNIT   1025 AT TIME STEP     29, STRESS PERIOD      1

 DENSITY WILL BE SAVED ON UNIT 1023 AT END OF TIME STEP   29, STRESS PERIOD    1

 HEAD WILL BE SAVED ON UNIT 1026 AT END OF TIME STEP   29, STRESS PERIOD    1

end timestep


start timestep kper="1" kstp="30" mode="normal"

 UBDSV1 SAVING     FLOW-JA-FACE ON UNIT   1025 AT TIME STEP     30, STRESS PERIOD      1
 UBDSV06 SAVING              WEL IN MODEL MODELBUOYF       PACKAGE MODELBUOYF      CONNECTED TO MODEL MODELBUOYF       PACKAGE WEL1             ON UNIT   1025 AT TIME STEP     30, STRESS PERIOD      1
 UBDSV06 SAVING              CHD IN MODEL MODELBUOYF       PACKAGE MODELBUOYF      CONNECTED TO MODEL MODELBUOYF       PACKAGE CHD1             ON UNIT   1025 AT TIME STEP     30, STRESS PERIOD      1

 DENSITY WILL BE SAVED ON UNIT 1023 AT END OF TIME STEP   30, STRESS PERIOD    1

 HEAD WILL BE SAVED ON UNIT 1026 AT END OF TIME STEP   30, STRESS PERIOD    1

end timestep


start timestep kper="1" kstp="31" mode="normal"

 UBDSV1 SAVING     FLOW-JA-FACE ON UNIT   1025 AT TIME STEP     31, STRESS PERIOD      1
 UBDSV06 SAVING              WEL IN MODEL MODELBUOYF       PACKAGE MODELBUOYF      CONNECTED TO MODEL MODELBUOYF       PACKAGE WEL1             ON UNIT   1025 AT TIME STEP     31, STRESS PERIOD      1
 UBDSV06 SAVING              CHD IN MODEL MODELBUOYF       PACKAGE MODELBUOYF      CONNECTED TO MODEL MODELBUOYF       PACKAGE CHD1             ON UNIT   1025 AT TIME STEP     31, STRESS PERIOD      1

 DENSITY WILL BE SAVED ON UNIT 1023 AT END OF TIME STEP   31, STRESS PERIOD    1

 HEAD WILL BE SAVED ON UNIT 1026 AT END OF TIME STEP   31, STRESS PERIOD    1

end timestep


start timestep kper="1" kstp="32" mode="normal"

 UBDSV1 SAVING     FLOW-JA-FACE ON UNIT   1025 AT TIME STEP     32, STRESS PERIOD      1
 UBDSV06 SAVING              WEL IN MODEL MODELBUOYF       PACKAGE MODELBUOYF      CONNECTED TO MODEL MODELBUOYF       PACKAGE WEL1             ON UNIT   1025 AT TIME STEP     32, STRESS PERIOD      1
 UBDSV06 SAVING              CHD IN MODEL MODELBUOYF       PACKAGE MODELBUOYF      CONNECTED TO MODEL MODELBUOYF       PACKAGE CHD1             ON UNIT   1025 AT TIME STEP     32, STRESS PERIOD      1

 DENSITY WILL BE SAVED ON UNIT 1023 AT END OF TIME STEP   32, STRESS PERIOD    1

 HEAD WILL BE SAVED ON UNIT 1026 AT END OF TIME STEP   32, STRESS PERIOD    1

end timestep


start timestep kper="1" kstp="33" mode="normal"

 UBDSV1 SAVING     FLOW-JA-FACE ON UNIT   1025 AT TIME STEP     33, STRESS PERIOD      1
 UBDSV06 SAVING              WEL IN MODEL MODELBUOYF       PACKAGE MODELBUOYF      CONNECTED TO MODEL MODELBUOYF       PACKAGE WEL1             ON UNIT   1025 AT TIME STEP     33, STRESS PERIOD      1
 UBDSV06 SAVING              CHD IN MODEL MODELBUOYF       PACKAGE MODELBUOYF      CONNECTED TO MODEL MODELBUOYF       PACKAGE CHD1             ON UNIT   1025 AT TIME STEP     33, STRESS PERIOD      1

 DENSITY WILL BE SAVED ON UNIT 1023 AT END OF TIME STEP   33, STRESS PERIOD    1

 HEAD WILL BE SAVED ON UNIT 1026 AT END OF TIME STEP   33, STRESS PERIOD    1

end timestep


start timestep kper="1" kstp="34" mode="normal"

 UBDSV1 SAVING     FLOW-JA-FACE ON UNIT   1025 AT TIME STEP     34, STRESS PERIOD      1
 UBDSV06 SAVING              WEL IN MODEL MODELBUOYF       PACKAGE MODELBUOYF      CONNECTED TO MODEL MODELBUOYF       PACKAGE WEL1             ON UNIT   1025 AT TIME STEP     34, STRESS PERIOD      1
 UBDSV06 SAVING              CHD IN MODEL MODELBUOYF       PACKAGE MODELBUOYF      CONNECTED TO MODEL MODELBUOYF       PACKAGE CHD1             ON UNIT   1025 AT TIME STEP     34, STRESS PERIOD      1

 DENSITY WILL BE SAVED ON UNIT 1023 AT END OF TIME STEP   34, STRESS PERIOD    1

 HEAD WILL BE SAVED ON UNIT 1026 AT END OF TIME STEP   34, STRESS PERIOD    1

end timestep


start timestep kper="1" kstp="35" mode="normal"

 UBDSV1 SAVING     FLOW-JA-FACE ON UNIT   1025 AT TIME STEP     35, STRESS PERIOD      1
 UBDSV06 SAVING              WEL IN MODEL MODELBUOYF       PACKAGE MODELBUOYF      CONNECTED TO MODEL MODELBUOYF       PACKAGE WEL1             ON UNIT   1025 AT TIME STEP     35, STRESS PERIOD      1
 UBDSV06 SAVING              CHD IN MODEL MODELBUOYF       PACKAGE MODELBUOYF      CONNECTED TO MODEL MODELBUOYF       PACKAGE CHD1             ON UNIT   1025 AT TIME STEP     35, STRESS PERIOD      1

 DENSITY WILL BE SAVED ON UNIT 1023 AT END OF TIME STEP   35, STRESS PERIOD    1

 HEAD WILL BE SAVED ON UNIT 1026 AT END OF TIME STEP   35, STRESS PERIOD    1

end timestep


start timestep kper="1" kstp="36" mode="normal"

 UBDSV1 SAVING     FLOW-JA-FACE ON UNIT   1025 AT TIME STEP     36, STRESS PERIOD      1
 UBDSV06 SAVING              WEL IN MODEL MODELBUOYF       PACKAGE MODELBUOYF      CONNECTED TO MODEL MODELBUOYF       PACKAGE WEL1             ON UNIT   1025 AT TIME STEP     36, STRESS PERIOD      1
 UBDSV06 SAVING              CHD IN MODEL MODELBUOYF       PACKAGE MODELBUOYF      CONNECTED TO MODEL MODELBUOYF       PACKAGE CHD1             ON UNIT   1025 AT TIME STEP     36, STRESS PERIOD      1

 DENSITY WILL BE SAVED ON UNIT 1023 AT END OF TIME STEP   36, STRESS PERIOD    1

 HEAD WILL BE SAVED ON UNIT 1026 AT END OF TIME STEP   36, STRESS PERIOD    1

end timestep


start timestep kper="1" kstp="37" mode="normal"

 UBDSV1 SAVING     FLOW-JA-FACE ON UNIT   1025 AT TIME STEP     37, STRESS PERIOD      1
 UBDSV06 SAVING              WEL IN MODEL MODELBUOYF       PACKAGE MODELBUOYF      CONNECTED TO MODEL MODELBUOYF       PACKAGE WEL1             ON UNIT   1025 AT TIME STEP     37, STRESS PERIOD      1
 UBDSV06 SAVING              CHD IN MODEL MODELBUOYF       PACKAGE MODELBUOYF      CONNECTED TO MODEL MODELBUOYF       PACKAGE CHD1             ON UNIT   1025 AT TIME STEP     37, STRESS PERIOD      1

 DENSITY WILL BE SAVED ON UNIT 1023 AT END OF TIME STEP   37, STRESS PERIOD    1

 HEAD WILL BE SAVED ON UNIT 1026 AT END OF TIME STEP   37, STRESS PERIOD    1

end timestep


start timestep kper="1" kstp="38" mode="normal"

 UBDSV1 SAVING     FLOW-JA-FACE ON UNIT   1025 AT TIME STEP     38, STRESS PERIOD      1
 UBDSV06 SAVING              WEL IN MODEL MODELBUOYF       PACKAGE MODELBUOYF      CONNECTED TO MODEL MODELBUOYF       PACKAGE WEL1             ON UNIT   1025 AT TIME STEP     38, STRESS PERIOD      1
 UBDSV06 SAVING              CHD IN MODEL MODELBUOYF       PACKAGE MODELBUOYF      CONNECTED TO MODEL MODELBUOYF       PACKAGE CHD1             ON UNIT   1025 AT TIME STEP     38, STRESS PERIOD      1

 DENSITY WILL BE SAVED ON UNIT 1023 AT END OF TIME STEP   38, STRESS PERIOD    1

 HEAD WILL BE SAVED ON UNIT 1026 AT END OF TIME STEP   38, STRESS PERIOD    1

end timestep


start timestep kper="1" kstp="39" mode="normal"

 UBDSV1 SAVING     FLOW-JA-FACE ON UNIT   1025 AT TIME STEP     39, STRESS PERIOD      1
 UBDSV06 SAVING              WEL IN MODEL MODELBUOYF       PACKAGE MODELBUOYF      CONNECTED TO MODEL MODELBUOYF       PACKAGE WEL1             ON UNIT   1025 AT TIME STEP     39, STRESS PERIOD      1
 UBDSV06 SAVING              CHD IN MODEL MODELBUOYF       PACKAGE MODELBUOYF      CONNECTED TO MODEL MODELBUOYF       PACKAGE CHD1             ON UNIT   1025 AT TIME STEP     39, STRESS PERIOD      1

 DENSITY WILL BE SAVED ON UNIT 1023 AT END OF TIME STEP   39, STRESS PERIOD    1

 HEAD WILL BE SAVED ON UNIT 1026 AT END OF TIME STEP   39, STRESS PERIOD    1

end timestep


start timestep kper="1" kstp="40" mode="normal"

 UBDSV1 SAVING     FLOW-JA-FACE ON UNIT   1025 AT TIME STEP     40, STRESS PERIOD      1
 UBDSV06 SAVING              WEL IN MODEL MODELBUOYF       PACKAGE MODELBUOYF      CONNECTED TO MODEL MODELBUOYF       PACKAGE WEL1             ON UNIT   1025 AT TIME STEP     40, STRESS PERIOD      1
 UBDSV06 SAVING              CHD IN MODEL MODELBUOYF       PACKAGE MODELBUOYF      CONNECTED TO MODEL MODELBUOYF       PACKAGE CHD1             ON UNIT   1025 AT TIME STEP     40, STRESS PERIOD      1

 DENSITY WILL BE SAVED ON UNIT 1023 AT END OF TIME STEP   40, STRESS PERIOD    1

 HEAD WILL BE SAVED ON UNIT 1026 AT END OF TIME STEP   40, STRESS PERIOD    1

end timestep


start timestep kper="1" kstp="41" mode="normal"

 UBDSV1 SAVING     FLOW-JA-FACE ON UNIT   1025 AT TIME STEP     41, STRESS PERIOD      1
 UBDSV06 SAVING              WEL IN MODEL MODELBUOYF       PACKAGE MODELBUOYF      CONNECTED TO MODEL MODELBUOYF       PACKAGE WEL1             ON UNIT   1025 AT TIME STEP     41, STRESS PERIOD      1
 UBDSV06 SAVING              CHD IN MODEL MODELBUOYF       PACKAGE MODELBUOYF      CONNECTED TO MODEL MODELBUOYF       PACKAGE CHD1             ON UNIT   1025 AT TIME STEP     41, STRESS PERIOD      1

 DENSITY WILL BE SAVED ON UNIT 1023 AT END OF TIME STEP   41, STRESS PERIOD    1

 HEAD WILL BE SAVED ON UNIT 1026 AT END OF TIME STEP   41, STRESS PERIOD    1

end timestep


start timestep kper="1" kstp="42" mode="normal"

 UBDSV1 SAVING     FLOW-JA-FACE ON UNIT   1025 AT TIME STEP     42, STRESS PERIOD      1
 UBDSV06 SAVING              WEL IN MODEL MODELBUOYF       PACKAGE MODELBUOYF      CONNECTED TO MODEL MODELBUOYF       PACKAGE WEL1             ON UNIT   1025 AT TIME STEP     42, STRESS PERIOD      1
 UBDSV06 SAVING              CHD IN MODEL MODELBUOYF       PACKAGE MODELBUOYF      CONNECTED TO MODEL MODELBUOYF       PACKAGE CHD1             ON UNIT   1025 AT TIME STEP     42, STRESS PERIOD      1

 DENSITY WILL BE SAVED ON UNIT 1023 AT END OF TIME STEP   42, STRESS PERIOD    1

 HEAD WILL BE SAVED ON UNIT 1026 AT END OF TIME STEP   42, STRESS PERIOD    1

end timestep


start timestep kper="1" kstp="43" mode="normal"

 UBDSV1 SAVING     FLOW-JA-FACE ON UNIT   1025 AT TIME STEP     43, STRESS PERIOD      1
 UBDSV06 SAVING              WEL IN MODEL MODELBUOYF       PACKAGE MODELBUOYF      CONNECTED TO MODEL MODELBUOYF       PACKAGE WEL1             ON UNIT   1025 AT TIME STEP     43, STRESS PERIOD      1
 UBDSV06 SAVING              CHD IN MODEL MODELBUOYF       PACKAGE MODELBUOYF      CONNECTED TO MODEL MODELBUOYF       PACKAGE CHD1             ON UNIT   1025 AT TIME STEP     43, STRESS PERIOD      1

 DENSITY WILL BE SAVED ON UNIT 1023 AT END OF TIME STEP   43, STRESS PERIOD    1

 HEAD WILL BE SAVED ON UNIT 1026 AT END OF TIME STEP   43, STRESS PERIOD    1

end timestep


start timestep kper="1" kstp="44" mode="normal"

 UBDSV1 SAVING     FLOW-JA-FACE ON UNIT   1025 AT TIME STEP     44, STRESS PERIOD      1
 UBDSV06 SAVING              WEL IN MODEL MODELBUOYF       PACKAGE MODELBUOYF      CONNECTED TO MODEL MODELBUOYF       PACKAGE WEL1             ON UNIT   1025 AT TIME STEP     44, STRESS PERIOD      1
 UBDSV06 SAVING              CHD IN MODEL MODELBUOYF       PACKAGE MODELBUOYF      CONNECTED TO MODEL MODELBUOYF       PACKAGE CHD1             ON UNIT   1025 AT TIME STEP     44, STRESS PERIOD      1

 DENSITY WILL BE SAVED ON UNIT 1023 AT END OF TIME STEP   44, STRESS PERIOD    1

 HEAD WILL BE SAVED ON UNIT 1026 AT END OF TIME STEP   44, STRESS PERIOD    1

end timestep


start timestep kper="1" kstp="45" mode="normal"

 UBDSV1 SAVING     FLOW-JA-FACE ON UNIT   1025 AT TIME STEP     45, STRESS PERIOD      1
 UBDSV06 SAVING              WEL IN MODEL MODELBUOYF       PACKAGE MODELBUOYF      CONNECTED TO MODEL MODELBUOYF       PACKAGE WEL1             ON UNIT   1025 AT TIME STEP     45, STRESS PERIOD      1
 UBDSV06 SAVING              CHD IN MODEL MODELBUOYF       PACKAGE MODELBUOYF      CONNECTED TO MODEL MODELBUOYF       PACKAGE CHD1             ON UNIT   1025 AT TIME STEP     45, STRESS PERIOD      1

 DENSITY WILL BE SAVED ON UNIT 1023 AT END OF TIME STEP   45, STRESS PERIOD    1

 HEAD WILL BE SAVED ON UNIT 1026 AT END OF TIME STEP   45, STRESS PERIOD    1

end timestep


start timestep kper="1" kstp="46" mode="normal"

 UBDSV1 SAVING     FLOW-JA-FACE ON UNIT   1025 AT TIME STEP     46, STRESS PERIOD      1
 UBDSV06 SAVING              WEL IN MODEL MODELBUOYF       PACKAGE MODELBUOYF      CONNECTED TO MODEL MODELBUOYF       PACKAGE WEL1             ON UNIT   1025 AT TIME STEP     46, STRESS PERIOD      1
 UBDSV06 SAVING              CHD IN MODEL MODELBUOYF       PACKAGE MODELBUOYF      CONNECTED TO MODEL MODELBUOYF       PACKAGE CHD1             ON UNIT   1025 AT TIME STEP     46, STRESS PERIOD      1

 DENSITY WILL BE SAVED ON UNIT 1023 AT END OF TIME STEP   46, STRESS PERIOD    1

 HEAD WILL BE SAVED ON UNIT 1026 AT END OF TIME STEP   46, STRESS PERIOD    1

end timestep


start timestep kper="1" kstp="47" mode="normal"

 UBDSV1 SAVING     FLOW-JA-FACE ON UNIT   1025 AT TIME STEP     47, STRESS PERIOD      1
 UBDSV06 SAVING              WEL IN MODEL MODELBUOYF       PACKAGE MODELBUOYF      CONNECTED TO MODEL MODELBUOYF       PACKAGE WEL1             ON UNIT   1025 AT TIME STEP     47, STRESS PERIOD      1
 UBDSV06 SAVING              CHD IN MODEL MODELBUOYF       PACKAGE MODELBUOYF      CONNECTED TO MODEL MODELBUOYF       PACKAGE CHD1             ON UNIT   1025 AT TIME STEP     47, STRESS PERIOD      1

 DENSITY WILL BE SAVED ON UNIT 1023 AT END OF TIME STEP   47, STRESS PERIOD    1

 HEAD WILL BE SAVED ON UNIT 1026 AT END OF TIME STEP   47, STRESS PERIOD    1

end timestep


start timestep kper="1" kstp="48" mode="normal"

 UBDSV1 SAVING     FLOW-JA-FACE ON UNIT   1025 AT TIME STEP     48, STRESS PERIOD      1
 UBDSV06 SAVING              WEL IN MODEL MODELBUOYF       PACKAGE MODELBUOYF      CONNECTED TO MODEL MODELBUOYF       PACKAGE WEL1             ON UNIT   1025 AT TIME STEP     48, STRESS PERIOD      1
 UBDSV06 SAVING              CHD IN MODEL MODELBUOYF       PACKAGE MODELBUOYF      CONNECTED TO MODEL MODELBUOYF       PACKAGE CHD1             ON UNIT   1025 AT TIME STEP     48, STRESS PERIOD      1

 DENSITY WILL BE SAVED ON UNIT 1023 AT END OF TIME STEP   48, STRESS PERIOD    1

 HEAD WILL BE SAVED ON UNIT 1026 AT END OF TIME STEP   48, STRESS PERIOD    1

end timestep


start timestep kper="1" kstp="49" mode="normal"

 UBDSV1 SAVING     FLOW-JA-FACE ON UNIT   1025 AT TIME STEP     49, STRESS PERIOD      1
 UBDSV06 SAVING              WEL IN MODEL MODELBUOYF       PACKAGE MODELBUOYF      CONNECTED TO MODEL MODELBUOYF       PACKAGE WEL1             ON UNIT   1025 AT TIME STEP     49, STRESS PERIOD      1
 UBDSV06 SAVING              CHD IN MODEL MODELBUOYF       PACKAGE MODELBUOYF      CONNECTED TO MODEL MODELBUOYF       PACKAGE CHD1             ON UNIT   1025 AT TIME STEP     49, STRESS PERIOD      1

 DENSITY WILL BE SAVED ON UNIT 1023 AT END OF TIME STEP   49, STRESS PERIOD    1

 HEAD WILL BE SAVED ON UNIT 1026 AT END OF TIME STEP   49, STRESS PERIOD    1

end timestep


start timestep kper="1" kstp="50" mode="normal"

 UBDSV1 SAVING     FLOW-JA-FACE ON UNIT   1025 AT TIME STEP     50, STRESS PERIOD      1
 UBDSV06 SAVING              WEL IN MODEL MODELBUOYF       PACKAGE MODELBUOYF      CONNECTED TO MODEL MODELBUOYF       PACKAGE WEL1             ON UNIT   1025 AT TIME STEP     50, STRESS PERIOD      1
 UBDSV06 SAVING              CHD IN MODEL MODELBUOYF       PACKAGE MODELBUOYF      CONNECTED TO MODEL MODELBUOYF       PACKAGE CHD1             ON UNIT   1025 AT TIME STEP     50, STRESS PERIOD      1

 DENSITY WILL BE SAVED ON UNIT 1023 AT END OF TIME STEP   50, STRESS PERIOD    1

 HEAD WILL BE SAVED ON UNIT 1026 AT END OF TIME STEP   50, STRESS PERIOD    1

end timestep


start timestep kper="1" kstp="51" mode="normal"

 UBDSV1 SAVING     FLOW-JA-FACE ON UNIT   1025 AT TIME STEP     51, STRESS PERIOD      1
 UBDSV06 SAVING              WEL IN MODEL MODELBUOYF       PACKAGE MODELBUOYF      CONNECTED TO MODEL MODELBUOYF       PACKAGE WEL1             ON UNIT   1025 AT TIME STEP     51, STRESS PERIOD      1
 UBDSV06 SAVING              CHD IN MODEL MODELBUOYF       PACKAGE MODELBUOYF      CONNECTED TO MODEL MODELBUOYF       PACKAGE CHD1             ON UNIT   1025 AT TIME STEP     51, STRESS PERIOD      1

 DENSITY WILL BE SAVED ON UNIT 1023 AT END OF TIME STEP   51, STRESS PERIOD    1

 HEAD WILL BE SAVED ON UNIT 1026 AT END OF TIME STEP   51, STRESS PERIOD    1

end timestep


start timestep kper="1" kstp="52" mode="normal"

 UBDSV1 SAVING     FLOW-JA-FACE ON UNIT   1025 AT TIME STEP     52, STRESS PERIOD      1
 UBDSV06 SAVING              WEL IN MODEL MODELBUOYF       PACKAGE MODELBUOYF      CONNECTED TO MODEL MODELBUOYF       PACKAGE WEL1             ON UNIT   1025 AT TIME STEP     52, STRESS PERIOD      1
 UBDSV06 SAVING              CHD IN MODEL MODELBUOYF       PACKAGE MODELBUOYF      CONNECTED TO MODEL MODELBUOYF       PACKAGE CHD1             ON UNIT   1025 AT TIME STEP     52, STRESS PERIOD      1

 DENSITY WILL BE SAVED ON UNIT 1023 AT END OF TIME STEP   52, STRESS PERIOD    1

 HEAD WILL BE SAVED ON UNIT 1026 AT END OF TIME STEP   52, STRESS PERIOD    1

end timestep


start timestep kper="1" kstp="53" mode="normal"

 UBDSV1 SAVING     FLOW-JA-FACE ON UNIT   1025 AT TIME STEP     53, STRESS PERIOD      1
 UBDSV06 SAVING              WEL IN MODEL MODELBUOYF       PACKAGE MODELBUOYF      CONNECTED TO MODEL MODELBUOYF       PACKAGE WEL1             ON UNIT   1025 AT TIME STEP     53, STRESS PERIOD      1
 UBDSV06 SAVING              CHD IN MODEL MODELBUOYF       PACKAGE MODELBUOYF      CONNECTED TO MODEL MODELBUOYF       PACKAGE CHD1             ON UNIT   1025 AT TIME STEP     53, STRESS PERIOD      1

 DENSITY WILL BE SAVED ON UNIT 1023 AT END OF TIME STEP   53, STRESS PERIOD    1

 HEAD WILL BE SAVED ON UNIT 1026 AT END OF TIME STEP   53, STRESS PERIOD    1

end timestep


start timestep kper="1" kstp="54" mode="normal"

 UBDSV1 SAVING     FLOW-JA-FACE ON UNIT   1025 AT TIME STEP     54, STRESS PERIOD      1
 UBDSV06 SAVING              WEL IN MODEL MODELBUOYF       PACKAGE MODELBUOYF      CONNECTED TO MODEL MODELBUOYF       PACKAGE WEL1             ON UNIT   1025 AT TIME STEP     54, STRESS PERIOD      1
 UBDSV06 SAVING              CHD IN MODEL MODELBUOYF       PACKAGE MODELBUOYF      CONNECTED TO MODEL MODELBUOYF       PACKAGE CHD1             ON UNIT   1025 AT TIME STEP     54, STRESS PERIOD      1

 DENSITY WILL BE SAVED ON UNIT 1023 AT END OF TIME STEP   54, STRESS PERIOD    1

 HEAD WILL BE SAVED ON UNIT 1026 AT END OF TIME STEP   54, STRESS PERIOD    1

end timestep


start timestep kper="1" kstp="55" mode="normal"

 UBDSV1 SAVING     FLOW-JA-FACE ON UNIT   1025 AT TIME STEP     55, STRESS PERIOD      1
 UBDSV06 SAVING              WEL IN MODEL MODELBUOYF       PACKAGE MODELBUOYF      CONNECTED TO MODEL MODELBUOYF       PACKAGE WEL1             ON UNIT   1025 AT TIME STEP     55, STRESS PERIOD      1
 UBDSV06 SAVING              CHD IN MODEL MODELBUOYF       PACKAGE MODELBUOYF      CONNECTED TO MODEL MODELBUOYF       PACKAGE CHD1             ON UNIT   1025 AT TIME STEP     55, STRESS PERIOD      1

 DENSITY WILL BE SAVED ON UNIT 1023 AT END OF TIME STEP   55, STRESS PERIOD    1

 HEAD WILL BE SAVED ON UNIT 1026 AT END OF TIME STEP   55, STRESS PERIOD    1

end timestep


start timestep kper="1" kstp="56" mode="normal"

 UBDSV1 SAVING     FLOW-JA-FACE ON UNIT   1025 AT TIME STEP     56, STRESS PERIOD      1
 UBDSV06 SAVING              WEL IN MODEL MODELBUOYF       PACKAGE MODELBUOYF      CONNECTED TO MODEL MODELBUOYF       PACKAGE WEL1             ON UNIT   1025 AT TIME STEP     56, STRESS PERIOD      1
 UBDSV06 SAVING              CHD IN MODEL MODELBUOYF       PACKAGE MODELBUOYF      CONNECTED TO MODEL MODELBUOYF       PACKAGE CHD1             ON UNIT   1025 AT TIME STEP     56, STRESS PERIOD      1

 DENSITY WILL BE SAVED ON UNIT 1023 AT END OF TIME STEP   56, STRESS PERIOD    1

 HEAD WILL BE SAVED ON UNIT 1026 AT END OF TIME STEP   56, STRESS PERIOD    1

end timestep


start timestep kper="1" kstp="57" mode="normal"

 UBDSV1 SAVING     FLOW-JA-FACE ON UNIT   1025 AT TIME STEP     57, STRESS PERIOD      1
 UBDSV06 SAVING              WEL IN MODEL MODELBUOYF       PACKAGE MODELBUOYF      CONNECTED TO MODEL MODELBUOYF       PACKAGE WEL1             ON UNIT   1025 AT TIME STEP     57, STRESS PERIOD      1
 UBDSV06 SAVING              CHD IN MODEL MODELBUOYF       PACKAGE MODELBUOYF      CONNECTED TO MODEL MODELBUOYF       PACKAGE CHD1             ON UNIT   1025 AT TIME STEP     57, STRESS PERIOD      1

 DENSITY WILL BE SAVED ON UNIT 1023 AT END OF TIME STEP   57, STRESS PERIOD    1

 HEAD WILL BE SAVED ON UNIT 1026 AT END OF TIME STEP   57, STRESS PERIOD    1

end timestep


start timestep kper="1" kstp="58" mode="normal"

 UBDSV1 SAVING     FLOW-JA-FACE ON UNIT   1025 AT TIME STEP     58, STRESS PERIOD      1
 UBDSV06 SAVING              WEL IN MODEL MODELBUOYF       PACKAGE MODELBUOYF      CONNECTED TO MODEL MODELBUOYF       PACKAGE WEL1             ON UNIT   1025 AT TIME STEP     58, STRESS PERIOD      1
 UBDSV06 SAVING              CHD IN MODEL MODELBUOYF       PACKAGE MODELBUOYF      CONNECTED TO MODEL MODELBUOYF       PACKAGE CHD1             ON UNIT   1025 AT TIME STEP     58, STRESS PERIOD      1

 DENSITY WILL BE SAVED ON UNIT 1023 AT END OF TIME STEP   58, STRESS PERIOD    1

 HEAD WILL BE SAVED ON UNIT 1026 AT END OF TIME STEP   58, STRESS PERIOD    1

end timestep


start timestep kper="1" kstp="59" mode="normal"

 UBDSV1 SAVING     FLOW-JA-FACE ON UNIT   1025 AT TIME STEP     59, STRESS PERIOD      1
 UBDSV06 SAVING              WEL IN MODEL MODELBUOYF       PACKAGE MODELBUOYF      CONNECTED TO MODEL MODELBUOYF       PACKAGE WEL1             ON UNIT   1025 AT TIME STEP     59, STRESS PERIOD      1
 UBDSV06 SAVING              CHD IN MODEL MODELBUOYF       PACKAGE MODELBUOYF      CONNECTED TO MODEL MODELBUOYF       PACKAGE CHD1             ON UNIT   1025 AT TIME STEP     59, STRESS PERIOD      1

 DENSITY WILL BE SAVED ON UNIT 1023 AT END OF TIME STEP   59, STRESS PERIOD    1

 HEAD WILL BE SAVED ON UNIT 1026 AT END OF TIME STEP   59, STRESS PERIOD    1

end timestep


start timestep kper="1" kstp="60" mode="normal"

 UBDSV1 SAVING     FLOW-JA-FACE ON UNIT   1025 AT TIME STEP     60, STRESS PERIOD      1
 UBDSV06 SAVING              WEL IN MODEL MODELBUOYF       PACKAGE MODELBUOYF      CONNECTED TO MODEL MODELBUOYF       PACKAGE WEL1             ON UNIT   1025 AT TIME STEP     60, STRESS PERIOD      1
 UBDSV06 SAVING              CHD IN MODEL MODELBUOYF       PACKAGE MODELBUOYF      CONNECTED TO MODEL MODELBUOYF       PACKAGE CHD1             ON UNIT   1025 AT TIME STEP     60, STRESS PERIOD      1

 DENSITY WILL BE SAVED ON UNIT 1023 AT END OF TIME STEP   60, STRESS PERIOD    1

 HEAD WILL BE SAVED ON UNIT 1026 AT END OF TIME STEP   60, STRESS PERIOD    1

end timestep


start timestep kper="1" kstp="61" mode="normal"

 UBDSV1 SAVING     FLOW-JA-FACE ON UNIT   1025 AT TIME STEP     61, STRESS PERIOD      1
 UBDSV06 SAVING              WEL IN MODEL MODELBUOYF       PACKAGE MODELBUOYF      CONNECTED TO MODEL MODELBUOYF       PACKAGE WEL1             ON UNIT   1025 AT TIME STEP     61, STRESS PERIOD      1
 UBDSV06 SAVING              CHD IN MODEL MODELBUOYF       PACKAGE MODELBUOYF      CONNECTED TO MODEL MODELBUOYF       PACKAGE CHD1             ON UNIT   1025 AT TIME STEP     61, STRESS PERIOD      1

 DENSITY WILL BE SAVED ON UNIT 1023 AT END OF TIME STEP   61, STRESS PERIOD    1

 HEAD WILL BE SAVED ON UNIT 1026 AT END OF TIME STEP   61, STRESS PERIOD    1

end timestep


start timestep kper="1" kstp="62" mode="normal"

 UBDSV1 SAVING     FLOW-JA-FACE ON UNIT   1025 AT TIME STEP     62, STRESS PERIOD      1
 UBDSV06 SAVING              WEL IN MODEL MODELBUOYF       PACKAGE MODELBUOYF      CONNECTED TO MODEL MODELBUOYF       PACKAGE WEL1             ON UNIT   1025 AT TIME STEP     62, STRESS PERIOD      1
 UBDSV06 SAVING              CHD IN MODEL MODELBUOYF       PACKAGE MODELBUOYF      CONNECTED TO MODEL MODELBUOYF       PACKAGE CHD1             ON UNIT   1025 AT TIME STEP     62, STRESS PERIOD      1

 DENSITY WILL BE SAVED ON UNIT 1023 AT END OF TIME STEP   62, STRESS PERIOD    1

 HEAD WILL BE SAVED ON UNIT 1026 AT END OF TIME STEP   62, STRESS PERIOD    1

end timestep


start timestep kper="1" kstp="63" mode="normal"

 UBDSV1 SAVING     FLOW-JA-FACE ON UNIT   1025 AT TIME STEP     63, STRESS PERIOD      1
 UBDSV06 SAVING              WEL IN MODEL MODELBUOYF       PACKAGE MODELBUOYF      CONNECTED TO MODEL MODELBUOYF       PACKAGE WEL1             ON UNIT   1025 AT TIME STEP     63, STRESS PERIOD      1
 UBDSV06 SAVING              CHD IN MODEL MODELBUOYF       PACKAGE MODELBUOYF      CONNECTED TO MODEL MODELBUOYF       PACKAGE CHD1             ON UNIT   1025 AT TIME STEP     63, STRESS PERIOD      1

 DENSITY WILL BE SAVED ON UNIT 1023 AT END OF TIME STEP   63, STRESS PERIOD    1

 HEAD WILL BE SAVED ON UNIT 1026 AT END OF TIME STEP   63, STRESS PERIOD    1

end timestep


start timestep kper="1" kstp="64" mode="normal"

 UBDSV1 SAVING     FLOW-JA-FACE ON UNIT   1025 AT TIME STEP     64, STRESS PERIOD      1
 UBDSV06 SAVING              WEL IN MODEL MODELBUOYF       PACKAGE MODELBUOYF      CONNECTED TO MODEL MODELBUOYF       PACKAGE WEL1             ON UNIT   1025 AT TIME STEP     64, STRESS PERIOD      1
 UBDSV06 SAVING              CHD IN MODEL MODELBUOYF       PACKAGE MODELBUOYF      CONNECTED TO MODEL MODELBUOYF       PACKAGE CHD1             ON UNIT   1025 AT TIME STEP     64, STRESS PERIOD      1

 DENSITY WILL BE SAVED ON UNIT 1023 AT END OF TIME STEP   64, STRESS PERIOD    1

 HEAD WILL BE SAVED ON UNIT 1026 AT END OF TIME STEP   64, STRESS PERIOD    1

end timestep


start timestep kper="1" kstp="65" mode="normal"

 UBDSV1 SAVING     FLOW-JA-FACE ON UNIT   1025 AT TIME STEP     65, STRESS PERIOD      1
 UBDSV06 SAVING              WEL IN MODEL MODELBUOYF       PACKAGE MODELBUOYF      CONNECTED TO MODEL MODELBUOYF       PACKAGE WEL1             ON UNIT   1025 AT TIME STEP     65, STRESS PERIOD      1
 UBDSV06 SAVING              CHD IN MODEL MODELBUOYF       PACKAGE MODELBUOYF      CONNECTED TO MODEL MODELBUOYF       PACKAGE CHD1             ON UNIT   1025 AT TIME STEP     65, STRESS PERIOD      1

 DENSITY WILL BE SAVED ON UNIT 1023 AT END OF TIME STEP   65, STRESS PERIOD    1

 HEAD WILL BE SAVED ON UNIT 1026 AT END OF TIME STEP   65, STRESS PERIOD    1

end timestep


start timestep kper="1" kstp="66" mode="normal"

 UBDSV1 SAVING     FLOW-JA-FACE ON UNIT   1025 AT TIME STEP     66, STRESS PERIOD      1
 UBDSV06 SAVING              WEL IN MODEL MODELBUOYF       PACKAGE MODELBUOYF      CONNECTED TO MODEL MODELBUOYF       PACKAGE WEL1             ON UNIT   1025 AT TIME STEP     66, STRESS PERIOD      1
 UBDSV06 SAVING              CHD IN MODEL MODELBUOYF       PACKAGE MODELBUOYF      CONNECTED TO MODEL MODELBUOYF       PACKAGE CHD1             ON UNIT   1025 AT TIME STEP     66, STRESS PERIOD      1

 DENSITY WILL BE SAVED ON UNIT 1023 AT END OF TIME STEP   66, STRESS PERIOD    1

 HEAD WILL BE SAVED ON UNIT 1026 AT END OF TIME STEP   66, STRESS PERIOD    1

end timestep


start timestep kper="1" kstp="67" mode="normal"

 UBDSV1 SAVING     FLOW-JA-FACE ON UNIT   1025 AT TIME STEP     67, STRESS PERIOD      1
 UBDSV06 SAVING              WEL IN MODEL MODELBUOYF       PACKAGE MODELBUOYF      CONNECTED TO MODEL MODELBUOYF       PACKAGE WEL1             ON UNIT   1025 AT TIME STEP     67, STRESS PERIOD      1
 UBDSV06 SAVING              CHD IN MODEL MODELBUOYF       PACKAGE MODELBUOYF      CONNECTED TO MODEL MODELBUOYF       PACKAGE CHD1             ON UNIT   1025 AT TIME STEP     67, STRESS PERIOD      1

 DENSITY WILL BE SAVED ON UNIT 1023 AT END OF TIME STEP   67, STRESS PERIOD    1

 HEAD WILL BE SAVED ON UNIT 1026 AT END OF TIME STEP   67, STRESS PERIOD    1

end timestep


start timestep kper="1" kstp="68" mode="normal"

 UBDSV1 SAVING     FLOW-JA-FACE ON UNIT   1025 AT TIME STEP     68, STRESS PERIOD      1
 UBDSV06 SAVING              WEL IN MODEL MODELBUOYF       PACKAGE MODELBUOYF      CONNECTED TO MODEL MODELBUOYF       PACKAGE WEL1             ON UNIT   1025 AT TIME STEP     68, STRESS PERIOD      1
 UBDSV06 SAVING              CHD IN MODEL MODELBUOYF       PACKAGE MODELBUOYF      CONNECTED TO MODEL MODELBUOYF       PACKAGE CHD1             ON UNIT   1025 AT TIME STEP     68, STRESS PERIOD      1

 DENSITY WILL BE SAVED ON UNIT 1023 AT END OF TIME STEP   68, STRESS PERIOD    1

 HEAD WILL BE SAVED ON UNIT 1026 AT END OF TIME STEP   68, STRESS PERIOD    1

end timestep


start timestep kper="1" kstp="69" mode="normal"

 UBDSV1 SAVING     FLOW-JA-FACE ON UNIT   1025 AT TIME STEP     69, STRESS PERIOD      1
 UBDSV06 SAVING              WEL IN MODEL MODELBUOYF       PACKAGE MODELBUOYF      CONNECTED TO MODEL MODELBUOYF       PACKAGE WEL1             ON UNIT   1025 AT TIME STEP     69, STRESS PERIOD      1
 UBDSV06 SAVING              CHD IN MODEL MODELBUOYF       PACKAGE MODELBUOYF      CONNECTED TO MODEL MODELBUOYF       PACKAGE CHD1             ON UNIT   1025 AT TIME STEP     69, STRESS PERIOD      1

 DENSITY WILL BE SAVED ON UNIT 1023 AT END OF TIME STEP   69, STRESS PERIOD    1

 HEAD WILL BE SAVED ON UNIT 1026 AT END OF TIME STEP   69, STRESS PERIOD    1

end timestep


start timestep kper="1" kstp="70" mode="normal"

 UBDSV1 SAVING     FLOW-JA-FACE ON UNIT   1025 AT TIME STEP     70, STRESS PERIOD      1
 UBDSV06 SAVING              WEL IN MODEL MODELBUOYF       PACKAGE MODELBUOYF      CONNECTED TO MODEL MODELBUOYF       PACKAGE WEL1             ON UNIT   1025 AT TIME STEP     70, STRESS PERIOD      1
 UBDSV06 SAVING              CHD IN MODEL MODELBUOYF       PACKAGE MODELBUOYF      CONNECTED TO MODEL MODELBUOYF       PACKAGE CHD1             ON UNIT   1025 AT TIME STEP     70, STRESS PERIOD      1

 DENSITY WILL BE SAVED ON UNIT 1023 AT END OF TIME STEP   70, STRESS PERIOD    1

 HEAD WILL BE SAVED ON UNIT 1026 AT END OF TIME STEP   70, STRESS PERIOD    1

end timestep


start timestep kper="1" kstp="71" mode="normal"

 UBDSV1 SAVING     FLOW-JA-FACE ON UNIT   1025 AT TIME STEP     71, STRESS PERIOD      1
 UBDSV06 SAVING              WEL IN MODEL MODELBUOYF       PACKAGE MODELBUOYF      CONNECTED TO MODEL MODELBUOYF       PACKAGE WEL1             ON UNIT   1025 AT TIME STEP     71, STRESS PERIOD      1
 UBDSV06 SAVING              CHD IN MODEL MODELBUOYF       PACKAGE MODELBUOYF      CONNECTED TO MODEL MODELBUOYF       PACKAGE CHD1             ON UNIT   1025 AT TIME STEP     71, STRESS PERIOD      1

 DENSITY WILL BE SAVED ON UNIT 1023 AT END OF TIME STEP   71, STRESS PERIOD    1

 HEAD WILL BE SAVED ON UNIT 1026 AT END OF TIME STEP   71, STRESS PERIOD    1

end timestep


start timestep kper="1" kstp="72" mode="normal"

 UBDSV1 SAVING     FLOW-JA-FACE ON UNIT   1025 AT TIME STEP     72, STRESS PERIOD      1
 UBDSV06 SAVING              WEL IN MODEL MODELBUOYF       PACKAGE MODELBUOYF      CONNECTED TO MODEL MODELBUOYF       PACKAGE WEL1             ON UNIT   1025 AT TIME STEP     72, STRESS PERIOD      1
 UBDSV06 SAVING              CHD IN MODEL MODELBUOYF       PACKAGE MODELBUOYF      CONNECTED TO MODEL MODELBUOYF       PACKAGE CHD1             ON UNIT   1025 AT TIME STEP     72, STRESS PERIOD      1

 DENSITY WILL BE SAVED ON UNIT 1023 AT END OF TIME STEP   72, STRESS PERIOD    1

 HEAD WILL BE SAVED ON UNIT 1026 AT END OF TIME STEP   72, STRESS PERIOD    1

end timestep


start timestep kper="1" kstp="73" mode="normal"

 UBDSV1 SAVING     FLOW-JA-FACE ON UNIT   1025 AT TIME STEP     73, STRESS PERIOD      1
 UBDSV06 SAVING              WEL IN MODEL MODELBUOYF       PACKAGE MODELBUOYF      CONNECTED TO MODEL MODELBUOYF       PACKAGE WEL1             ON UNIT   1025 AT TIME STEP     73, STRESS PERIOD      1
 UBDSV06 SAVING              CHD IN MODEL MODELBUOYF       PACKAGE MODELBUOYF      CONNECTED TO MODEL MODELBUOYF       PACKAGE CHD1             ON UNIT   1025 AT TIME STEP     73, STRESS PERIOD      1

 DENSITY WILL BE SAVED ON UNIT 1023 AT END OF TIME STEP   73, STRESS PERIOD    1

 HEAD WILL BE SAVED ON UNIT 1026 AT END OF TIME STEP   73, STRESS PERIOD    1

end timestep


start timestep kper="1" kstp="74" mode="normal"

 UBDSV1 SAVING     FLOW-JA-FACE ON UNIT   1025 AT TIME STEP     74, STRESS PERIOD      1
 UBDSV06 SAVING              WEL IN MODEL MODELBUOYF       PACKAGE MODELBUOYF      CONNECTED TO MODEL MODELBUOYF       PACKAGE WEL1             ON UNIT   1025 AT TIME STEP     74, STRESS PERIOD      1
 UBDSV06 SAVING              CHD IN MODEL MODELBUOYF       PACKAGE MODELBUOYF      CONNECTED TO MODEL MODELBUOYF       PACKAGE CHD1             ON UNIT   1025 AT TIME STEP     74, STRESS PERIOD      1

 DENSITY WILL BE SAVED ON UNIT 1023 AT END OF TIME STEP   74, STRESS PERIOD    1

 HEAD WILL BE SAVED ON UNIT 1026 AT END OF TIME STEP   74, STRESS PERIOD    1

end timestep


start timestep kper="1" kstp="75" mode="normal"

 UBDSV1 SAVING     FLOW-JA-FACE ON UNIT   1025 AT TIME STEP     75, STRESS PERIOD      1
 UBDSV06 SAVING              WEL IN MODEL MODELBUOYF       PACKAGE MODELBUOYF      CONNECTED TO MODEL MODELBUOYF       PACKAGE WEL1             ON UNIT   1025 AT TIME STEP     75, STRESS PERIOD      1
 UBDSV06 SAVING              CHD IN MODEL MODELBUOYF       PACKAGE MODELBUOYF      CONNECTED TO MODEL MODELBUOYF       PACKAGE CHD1             ON UNIT   1025 AT TIME STEP     75, STRESS PERIOD      1

 DENSITY WILL BE SAVED ON UNIT 1023 AT END OF TIME STEP   75, STRESS PERIOD    1

 HEAD WILL BE SAVED ON UNIT 1026 AT END OF TIME STEP   75, STRESS PERIOD    1

end timestep


start timestep kper="1" kstp="76" mode="normal"

 UBDSV1 SAVING     FLOW-JA-FACE ON UNIT   1025 AT TIME STEP     76, STRESS PERIOD      1
 UBDSV06 SAVING              WEL IN MODEL MODELBUOYF       PACKAGE MODELBUOYF      CONNECTED TO MODEL MODELBUOYF       PACKAGE WEL1             ON UNIT   1025 AT TIME STEP     76, STRESS PERIOD      1
 UBDSV06 SAVING              CHD IN MODEL MODELBUOYF       PACKAGE MODELBUOYF      CONNECTED TO MODEL MODELBUOYF       PACKAGE CHD1             ON UNIT   1025 AT TIME STEP     76, STRESS PERIOD      1

 DENSITY WILL BE SAVED ON UNIT 1023 AT END OF TIME STEP   76, STRESS PERIOD    1

 HEAD WILL BE SAVED ON UNIT 1026 AT END OF TIME STEP   76, STRESS PERIOD    1

end timestep


start timestep kper="1" kstp="77" mode="normal"

 UBDSV1 SAVING     FLOW-JA-FACE ON UNIT   1025 AT TIME STEP     77, STRESS PERIOD      1
 UBDSV06 SAVING              WEL IN MODEL MODELBUOYF       PACKAGE MODELBUOYF      CONNECTED TO MODEL MODELBUOYF       PACKAGE WEL1             ON UNIT   1025 AT TIME STEP     77, STRESS PERIOD      1
 UBDSV06 SAVING              CHD IN MODEL MODELBUOYF       PACKAGE MODELBUOYF      CONNECTED TO MODEL MODELBUOYF       PACKAGE CHD1             ON UNIT   1025 AT TIME STEP     77, STRESS PERIOD      1

 DENSITY WILL BE SAVED ON UNIT 1023 AT END OF TIME STEP   77, STRESS PERIOD    1

 HEAD WILL BE SAVED ON UNIT 1026 AT END OF TIME STEP   77, STRESS PERIOD    1

end timestep


start timestep kper="1" kstp="78" mode="normal"

 UBDSV1 SAVING     FLOW-JA-FACE ON UNIT   1025 AT TIME STEP     78, STRESS PERIOD      1
 UBDSV06 SAVING              WEL IN MODEL MODELBUOYF       PACKAGE MODELBUOYF      CONNECTED TO MODEL MODELBUOYF       PACKAGE WEL1             ON UNIT   1025 AT TIME STEP     78, STRESS PERIOD      1
 UBDSV06 SAVING              CHD IN MODEL MODELBUOYF       PACKAGE MODELBUOYF      CONNECTED TO MODEL MODELBUOYF       PACKAGE CHD1             ON UNIT   1025 AT TIME STEP     78, STRESS PERIOD      1

 DENSITY WILL BE SAVED ON UNIT 1023 AT END OF TIME STEP   78, STRESS PERIOD    1

 HEAD WILL BE SAVED ON UNIT 1026 AT END OF TIME STEP   78, STRESS PERIOD    1

end timestep


start timestep kper="1" kstp="79" mode="normal"

 UBDSV1 SAVING     FLOW-JA-FACE ON UNIT   1025 AT TIME STEP     79, STRESS PERIOD      1
 UBDSV06 SAVING              WEL IN MODEL MODELBUOYF       PACKAGE MODELBUOYF      CONNECTED TO MODEL MODELBUOYF       PACKAGE WEL1             ON UNIT   1025 AT TIME STEP     79, STRESS PERIOD      1
 UBDSV06 SAVING              CHD IN MODEL MODELBUOYF       PACKAGE MODELBUOYF      CONNECTED TO MODEL MODELBUOYF       PACKAGE CHD1             ON UNIT   1025 AT TIME STEP     79, STRESS PERIOD      1

 DENSITY WILL BE SAVED ON UNIT 1023 AT END OF TIME STEP   79, STRESS PERIOD    1

 HEAD WILL BE SAVED ON UNIT 1026 AT END OF TIME STEP   79, STRESS PERIOD    1

end timestep


start timestep kper="1" kstp="80" mode="normal"

 UBDSV1 SAVING     FLOW-JA-FACE ON UNIT   1025 AT TIME STEP     80, STRESS PERIOD      1
 UBDSV06 SAVING              WEL IN MODEL MODELBUOYF       PACKAGE MODELBUOYF      CONNECTED TO MODEL MODELBUOYF       PACKAGE WEL1             ON UNIT   1025 AT TIME STEP     80, STRESS PERIOD      1
 UBDSV06 SAVING              CHD IN MODEL MODELBUOYF       PACKAGE MODELBUOYF      CONNECTED TO MODEL MODELBUOYF       PACKAGE CHD1             ON UNIT   1025 AT TIME STEP     80, STRESS PERIOD      1

 DENSITY WILL BE SAVED ON UNIT 1023 AT END OF TIME STEP   80, STRESS PERIOD    1

 HEAD WILL BE SAVED ON UNIT 1026 AT END OF TIME STEP   80, STRESS PERIOD    1

end timestep


start timestep kper="1" kstp="81" mode="normal"

 UBDSV1 SAVING     FLOW-JA-FACE ON UNIT   1025 AT TIME STEP     81, STRESS PERIOD      1
 UBDSV06 SAVING              WEL IN MODEL MODELBUOYF       PACKAGE MODELBUOYF      CONNECTED TO MODEL MODELBUOYF       PACKAGE WEL1             ON UNIT   1025 AT TIME STEP     81, STRESS PERIOD      1
 UBDSV06 SAVING              CHD IN MODEL MODELBUOYF       PACKAGE MODELBUOYF      CONNECTED TO MODEL MODELBUOYF       PACKAGE CHD1             ON UNIT   1025 AT TIME STEP     81, STRESS PERIOD      1

 DENSITY WILL BE SAVED ON UNIT 1023 AT END OF TIME STEP   81, STRESS PERIOD    1

 HEAD WILL BE SAVED ON UNIT 1026 AT END OF TIME STEP   81, STRESS PERIOD    1

end timestep


start timestep kper="1" kstp="82" mode="normal"

 UBDSV1 SAVING     FLOW-JA-FACE ON UNIT   1025 AT TIME STEP     82, STRESS PERIOD      1
 UBDSV06 SAVING              WEL IN MODEL MODELBUOYF       PACKAGE MODELBUOYF      CONNECTED TO MODEL MODELBUOYF       PACKAGE WEL1             ON UNIT   1025 AT TIME STEP     82, STRESS PERIOD      1
 UBDSV06 SAVING              CHD IN MODEL MODELBUOYF       PACKAGE MODELBUOYF      CONNECTED TO MODEL MODELBUOYF       PACKAGE CHD1             ON UNIT   1025 AT TIME STEP     82, STRESS PERIOD      1

 DENSITY WILL BE SAVED ON UNIT 1023 AT END OF TIME STEP   82, STRESS PERIOD    1

 HEAD WILL BE SAVED ON UNIT 1026 AT END OF TIME STEP   82, STRESS PERIOD    1

end timestep


start timestep kper="1" kstp="83" mode="normal"

 UBDSV1 SAVING     FLOW-JA-FACE ON UNIT   1025 AT TIME STEP     83, STRESS PERIOD      1
 UBDSV06 SAVING              WEL IN MODEL MODELBUOYF       PACKAGE MODELBUOYF      CONNECTED TO MODEL MODELBUOYF       PACKAGE WEL1             ON UNIT   1025 AT TIME STEP     83, STRESS PERIOD      1
 UBDSV06 SAVING              CHD IN MODEL MODELBUOYF       PACKAGE MODELBUOYF      CONNECTED TO MODEL MODELBUOYF       PACKAGE CHD1             ON UNIT   1025 AT TIME STEP     83, STRESS PERIOD      1

 DENSITY WILL BE SAVED ON UNIT 1023 AT END OF TIME STEP   83, STRESS PERIOD    1

 HEAD WILL BE SAVED ON UNIT 1026 AT END OF TIME STEP   83, STRESS PERIOD    1

end timestep


start timestep kper="1" kstp="84" mode="normal"

 UBDSV1 SAVING     FLOW-JA-FACE ON UNIT   1025 AT TIME STEP     84, STRESS PERIOD      1
 UBDSV06 SAVING              WEL IN MODEL MODELBUOYF       PACKAGE MODELBUOYF      CONNECTED TO MODEL MODELBUOYF       PACKAGE WEL1             ON UNIT   1025 AT TIME STEP     84, STRESS PERIOD      1
 UBDSV06 SAVING              CHD IN MODEL MODELBUOYF       PACKAGE MODELBUOYF      CONNECTED TO MODEL MODELBUOYF       PACKAGE CHD1             ON UNIT   1025 AT TIME STEP     84, STRESS PERIOD      1

 DENSITY WILL BE SAVED ON UNIT 1023 AT END OF TIME STEP   84, STRESS PERIOD    1

 HEAD WILL BE SAVED ON UNIT 1026 AT END OF TIME STEP   84, STRESS PERIOD    1

end timestep


start timestep kper="1" kstp="85" mode="normal"

 UBDSV1 SAVING     FLOW-JA-FACE ON UNIT   1025 AT TIME STEP     85, STRESS PERIOD      1
 UBDSV06 SAVING              WEL IN MODEL MODELBUOYF       PACKAGE MODELBUOYF      CONNECTED TO MODEL MODELBUOYF       PACKAGE WEL1             ON UNIT   1025 AT TIME STEP     85, STRESS PERIOD      1
 UBDSV06 SAVING              CHD IN MODEL MODELBUOYF       PACKAGE MODELBUOYF      CONNECTED TO MODEL MODELBUOYF       PACKAGE CHD1             ON UNIT   1025 AT TIME STEP     85, STRESS PERIOD      1

 DENSITY WILL BE SAVED ON UNIT 1023 AT END OF TIME STEP   85, STRESS PERIOD    1

 HEAD WILL BE SAVED ON UNIT 1026 AT END OF TIME STEP   85, STRESS PERIOD    1

end timestep


start timestep kper="1" kstp="86" mode="normal"

 UBDSV1 SAVING     FLOW-JA-FACE ON UNIT   1025 AT TIME STEP     86, STRESS PERIOD      1
 UBDSV06 SAVING              WEL IN MODEL MODELBUOYF       PACKAGE MODELBUOYF      CONNECTED TO MODEL MODELBUOYF       PACKAGE WEL1             ON UNIT   1025 AT TIME STEP     86, STRESS PERIOD      1
 UBDSV06 SAVING              CHD IN MODEL MODELBUOYF       PACKAGE MODELBUOYF      CONNECTED TO MODEL MODELBUOYF       PACKAGE CHD1             ON UNIT   1025 AT TIME STEP     86, STRESS PERIOD      1

 DENSITY WILL BE SAVED ON UNIT 1023 AT END OF TIME STEP   86, STRESS PERIOD    1

 HEAD WILL BE SAVED ON UNIT 1026 AT END OF TIME STEP   86, STRESS PERIOD    1

end timestep


start timestep kper="1" kstp="87" mode="normal"

 UBDSV1 SAVING     FLOW-JA-FACE ON UNIT   1025 AT TIME STEP     87, STRESS PERIOD      1
 UBDSV06 SAVING              WEL IN MODEL MODELBUOYF       PACKAGE MODELBUOYF      CONNECTED TO MODEL MODELBUOYF       PACKAGE WEL1             ON UNIT   1025 AT TIME STEP     87, STRESS PERIOD      1
 UBDSV06 SAVING              CHD IN MODEL MODELBUOYF       PACKAGE MODELBUOYF      CONNECTED TO MODEL MODELBUOYF       PACKAGE CHD1             ON UNIT   1025 AT TIME STEP     87, STRESS PERIOD      1

 DENSITY WILL BE SAVED ON UNIT 1023 AT END OF TIME STEP   87, STRESS PERIOD    1

 HEAD WILL BE SAVED ON UNIT 1026 AT END OF TIME STEP   87, STRESS PERIOD    1

end timestep


start timestep kper="1" kstp="88" mode="normal"

 UBDSV1 SAVING     FLOW-JA-FACE ON UNIT   1025 AT TIME STEP     88, STRESS PERIOD      1
 UBDSV06 SAVING              WEL IN MODEL MODELBUOYF       PACKAGE MODELBUOYF      CONNECTED TO MODEL MODELBUOYF       PACKAGE WEL1             ON UNIT   1025 AT TIME STEP     88, STRESS PERIOD      1
 UBDSV06 SAVING              CHD IN MODEL MODELBUOYF       PACKAGE MODELBUOYF      CONNECTED TO MODEL MODELBUOYF       PACKAGE CHD1             ON UNIT   1025 AT TIME STEP     88, STRESS PERIOD      1

 DENSITY WILL BE SAVED ON UNIT 1023 AT END OF TIME STEP   88, STRESS PERIOD    1

 HEAD WILL BE SAVED ON UNIT 1026 AT END OF TIME STEP   88, STRESS PERIOD    1

end timestep


start timestep kper="1" kstp="89" mode="normal"

 UBDSV1 SAVING     FLOW-JA-FACE ON UNIT   1025 AT TIME STEP     89, STRESS PERIOD      1
 UBDSV06 SAVING              WEL IN MODEL MODELBUOYF       PACKAGE MODELBUOYF      CONNECTED TO MODEL MODELBUOYF       PACKAGE WEL1             ON UNIT   1025 AT TIME STEP     89, STRESS PERIOD      1
 UBDSV06 SAVING              CHD IN MODEL MODELBUOYF       PACKAGE MODELBUOYF      CONNECTED TO MODEL MODELBUOYF       PACKAGE CHD1             ON UNIT   1025 AT TIME STEP     89, STRESS PERIOD      1

 DENSITY WILL BE SAVED ON UNIT 1023 AT END OF TIME STEP   89, STRESS PERIOD    1

 HEAD WILL BE SAVED ON UNIT 1026 AT END OF TIME STEP   89, STRESS PERIOD    1

end timestep


start timestep kper="1" kstp="90" mode="normal"

 UBDSV1 SAVING     FLOW-JA-FACE ON UNIT   1025 AT TIME STEP     90, STRESS PERIOD      1
 UBDSV06 SAVING              WEL IN MODEL MODELBUOYF       PACKAGE MODELBUOYF      CONNECTED TO MODEL MODELBUOYF       PACKAGE WEL1             ON UNIT   1025 AT TIME STEP     90, STRESS PERIOD      1
 UBDSV06 SAVING              CHD IN MODEL MODELBUOYF       PACKAGE MODELBUOYF      CONNECTED TO MODEL MODELBUOYF       PACKAGE CHD1             ON UNIT   1025 AT TIME STEP     90, STRESS PERIOD      1

 DENSITY WILL BE SAVED ON UNIT 1023 AT END OF TIME STEP   90, STRESS PERIOD    1

 HEAD WILL BE SAVED ON UNIT 1026 AT END OF TIME STEP   90, STRESS PERIOD    1

end timestep


start timestep kper="1" kstp="91" mode="normal"

 UBDSV1 SAVING     FLOW-JA-FACE ON UNIT   1025 AT TIME STEP     91, STRESS PERIOD      1
 UBDSV06 SAVING              WEL IN MODEL MODELBUOYF       PACKAGE MODELBUOYF      CONNECTED TO MODEL MODELBUOYF       PACKAGE WEL1             ON UNIT   1025 AT TIME STEP     91, STRESS PERIOD      1
 UBDSV06 SAVING              CHD IN MODEL MODELBUOYF       PACKAGE MODELBUOYF      CONNECTED TO MODEL MODELBUOYF       PACKAGE CHD1             ON UNIT   1025 AT TIME STEP     91, STRESS PERIOD      1

 DENSITY WILL BE SAVED ON UNIT 1023 AT END OF TIME STEP   91, STRESS PERIOD    1

 HEAD WILL BE SAVED ON UNIT 1026 AT END OF TIME STEP   91, STRESS PERIOD    1

end timestep


start timestep kper="1" kstp="92" mode="normal"

 UBDSV1 SAVING     FLOW-JA-FACE ON UNIT   1025 AT TIME STEP     92, STRESS PERIOD      1
 UBDSV06 SAVING              WEL IN MODEL MODELBUOYF       PACKAGE MODELBUOYF      CONNECTED TO MODEL MODELBUOYF       PACKAGE WEL1             ON UNIT   1025 AT TIME STEP     92, STRESS PERIOD      1
 UBDSV06 SAVING              CHD IN MODEL MODELBUOYF       PACKAGE MODELBUOYF      CONNECTED TO MODEL MODELBUOYF       PACKAGE CHD1             ON UNIT   1025 AT TIME STEP     92, STRESS PERIOD      1

 DENSITY WILL BE SAVED ON UNIT 1023 AT END OF TIME STEP   92, STRESS PERIOD    1

 HEAD WILL BE SAVED ON UNIT 1026 AT END OF TIME STEP   92, STRESS PERIOD    1

end timestep


start timestep kper="1" kstp="93" mode="normal"

 UBDSV1 SAVING     FLOW-JA-FACE ON UNIT   1025 AT TIME STEP     93, STRESS PERIOD      1
 UBDSV06 SAVING              WEL IN MODEL MODELBUOYF       PACKAGE MODELBUOYF      CONNECTED TO MODEL MODELBUOYF       PACKAGE WEL1             ON UNIT   1025 AT TIME STEP     93, STRESS PERIOD      1
 UBDSV06 SAVING              CHD IN MODEL MODELBUOYF       PACKAGE MODELBUOYF      CONNECTED TO MODEL MODELBUOYF       PACKAGE CHD1             ON UNIT   1025 AT TIME STEP     93, STRESS PERIOD      1

 DENSITY WILL BE SAVED ON UNIT 1023 AT END OF TIME STEP   93, STRESS PERIOD    1

 HEAD WILL BE SAVED ON UNIT 1026 AT END OF TIME STEP   93, STRESS PERIOD    1

end timestep


start timestep kper="1" kstp="94" mode="normal"

 UBDSV1 SAVING     FLOW-JA-FACE ON UNIT   1025 AT TIME STEP     94, STRESS PERIOD      1
 UBDSV06 SAVING              WEL IN MODEL MODELBUOYF       PACKAGE MODELBUOYF      CONNECTED TO MODEL MODELBUOYF       PACKAGE WEL1             ON UNIT   1025 AT TIME STEP     94, STRESS PERIOD      1
 UBDSV06 SAVING              CHD IN MODEL MODELBUOYF       PACKAGE MODELBUOYF      CONNECTED TO MODEL MODELBUOYF       PACKAGE CHD1             ON UNIT   1025 AT TIME STEP     94, STRESS PERIOD      1

 DENSITY WILL BE SAVED ON UNIT 1023 AT END OF TIME STEP   94, STRESS PERIOD    1

 HEAD WILL BE SAVED ON UNIT 1026 AT END OF TIME STEP   94, STRESS PERIOD    1

end timestep


start timestep kper="1" kstp="95" mode="normal"

 UBDSV1 SAVING     FLOW-JA-FACE ON UNIT   1025 AT TIME STEP     95, STRESS PERIOD      1
 UBDSV06 SAVING              WEL IN MODEL MODELBUOYF       PACKAGE MODELBUOYF      CONNECTED TO MODEL MODELBUOYF       PACKAGE WEL1             ON UNIT   1025 AT TIME STEP     95, STRESS PERIOD      1
[...]

 HEAD WILL BE SAVED ON UNIT 1026 AT END OF TIME STEP  275, STRESS PERIOD    2

end timestep


start timestep kper="2" kstp="276" mode="normal"

 UBDSV1 SAVING     FLOW-JA-FACE ON UNIT   1025 AT TIME STEP    276, STRESS PERIOD      2
 UBDSV06 SAVING              WEL IN MODEL MODELBUOYF       PACKAGE MODELBUOYF      CONNECTED TO MODEL MODELBUOYF       PACKAGE WEL1             ON UNIT   1025 AT TIME STEP    276, STRESS PERIOD      2
 UBDSV06 SAVING              CHD IN MODEL MODELBUOYF       PACKAGE MODELBUOYF      CONNECTED TO MODEL MODELBUOYF       PACKAGE CHD1             ON UNIT   1025 AT TIME STEP    276, STRESS PERIOD      2

 DENSITY WILL BE SAVED ON UNIT 1023 AT END OF TIME STEP  276, STRESS PERIOD    2

 HEAD WILL BE SAVED ON UNIT 1026 AT END OF TIME STEP  276, STRESS PERIOD    2

end timestep


start timestep kper="2" kstp="277" mode="normal"

 UBDSV1 SAVING     FLOW-JA-FACE ON UNIT   1025 AT TIME STEP    277, STRESS PERIOD      2
 UBDSV06 SAVING              WEL IN MODEL MODELBUOYF       PACKAGE MODELBUOYF      CONNECTED TO MODEL MODELBUOYF       PACKAGE WEL1             ON UNIT   1025 AT TIME STEP    277, STRESS PERIOD      2
 UBDSV06 SAVING              CHD IN MODEL MODELBUOYF       PACKAGE MODELBUOYF      CONNECTED TO MODEL MODELBUOYF       PACKAGE CHD1             ON UNIT   1025 AT TIME STEP    277, STRESS PERIOD      2

 DENSITY WILL BE SAVED ON UNIT 1023 AT END OF TIME STEP  277, STRESS PERIOD    2

 HEAD WILL BE SAVED ON UNIT 1026 AT END OF TIME STEP  277, STRESS PERIOD    2

end timestep


start timestep kper="2" kstp="278" mode="normal"

 UBDSV1 SAVING     FLOW-JA-FACE ON UNIT   1025 AT TIME STEP    278, STRESS PERIOD      2
 UBDSV06 SAVING              WEL IN MODEL MODELBUOYF       PACKAGE MODELBUOYF      CONNECTED TO MODEL MODELBUOYF       PACKAGE WEL1             ON UNIT   1025 AT TIME STEP    278, STRESS PERIOD      2
 UBDSV06 SAVING              CHD IN MODEL MODELBUOYF       PACKAGE MODELBUOYF      CONNECTED TO MODEL MODELBUOYF       PACKAGE CHD1             ON UNIT   1025 AT TIME STEP    278, STRESS PERIOD      2

 DENSITY WILL BE SAVED ON UNIT 1023 AT END OF TIME STEP  278, STRESS PERIOD    2

 HEAD WILL BE SAVED ON UNIT 1026 AT END OF TIME STEP  278, STRESS PERIOD    2

end timestep


start timestep kper="2" kstp="279" mode="normal"

 UBDSV1 SAVING     FLOW-JA-FACE ON UNIT   1025 AT TIME STEP    279, STRESS PERIOD      2
 UBDSV06 SAVING              WEL IN MODEL MODELBUOYF       PACKAGE MODELBUOYF      CONNECTED TO MODEL MODELBUOYF       PACKAGE WEL1             ON UNIT   1025 AT TIME STEP    279, STRESS PERIOD      2
 UBDSV06 SAVING              CHD IN MODEL MODELBUOYF       PACKAGE MODELBUOYF      CONNECTED TO MODEL MODELBUOYF       PACKAGE CHD1             ON UNIT   1025 AT TIME STEP    279, STRESS PERIOD      2

 DENSITY WILL BE SAVED ON UNIT 1023 AT END OF TIME STEP  279, STRESS PERIOD    2

 HEAD WILL BE SAVED ON UNIT 1026 AT END OF TIME STEP  279, STRESS PERIOD    2

end timestep


start timestep kper="2" kstp="280" mode="normal"

 UBDSV1 SAVING     FLOW-JA-FACE ON UNIT   1025 AT TIME STEP    280, STRESS PERIOD      2
 UBDSV06 SAVING              WEL IN MODEL MODELBUOYF       PACKAGE MODELBUOYF      CONNECTED TO MODEL MODELBUOYF       PACKAGE WEL1             ON UNIT   1025 AT TIME STEP    280, STRESS PERIOD      2
 UBDSV06 SAVING              CHD IN MODEL MODELBUOYF       PACKAGE MODELBUOYF      CONNECTED TO MODEL MODELBUOYF       PACKAGE CHD1             ON UNIT   1025 AT TIME STEP    280, STRESS PERIOD      2

 DENSITY WILL BE SAVED ON UNIT 1023 AT END OF TIME STEP  280, STRESS PERIOD    2

 HEAD WILL BE SAVED ON UNIT 1026 AT END OF TIME STEP  280, STRESS PERIOD    2

end timestep


start timestep kper="2" kstp="281" mode="normal"

 UBDSV1 SAVING     FLOW-JA-FACE ON UNIT   1025 AT TIME STEP    281, STRESS PERIOD      2
 UBDSV06 SAVING              WEL IN MODEL MODELBUOYF       PACKAGE MODELBUOYF      CONNECTED TO MODEL MODELBUOYF       PACKAGE WEL1             ON UNIT   1025 AT TIME STEP    281, STRESS PERIOD      2
 UBDSV06 SAVING              CHD IN MODEL MODELBUOYF       PACKAGE MODELBUOYF      CONNECTED TO MODEL MODELBUOYF       PACKAGE CHD1             ON UNIT   1025 AT TIME STEP    281, STRESS PERIOD      2

 DENSITY WILL BE SAVED ON UNIT 1023 AT END OF TIME STEP  281, STRESS PERIOD    2

 HEAD WILL BE SAVED ON UNIT 1026 AT END OF TIME STEP  281, STRESS PERIOD    2

end timestep


start timestep kper="2" kstp="282" mode="normal"

 UBDSV1 SAVING     FLOW-JA-FACE ON UNIT   1025 AT TIME STEP    282, STRESS PERIOD      2
 UBDSV06 SAVING              WEL IN MODEL MODELBUOYF       PACKAGE MODELBUOYF      CONNECTED TO MODEL MODELBUOYF       PACKAGE WEL1             ON UNIT   1025 AT TIME STEP    282, STRESS PERIOD      2
 UBDSV06 SAVING              CHD IN MODEL MODELBUOYF       PACKAGE MODELBUOYF      CONNECTED TO MODEL MODELBUOYF       PACKAGE CHD1             ON UNIT   1025 AT TIME STEP    282, STRESS PERIOD      2

 DENSITY WILL BE SAVED ON UNIT 1023 AT END OF TIME STEP  282, STRESS PERIOD    2

 HEAD WILL BE SAVED ON UNIT 1026 AT END OF TIME STEP  282, STRESS PERIOD    2

end timestep


start timestep kper="2" kstp="283" mode="normal"

 UBDSV1 SAVING     FLOW-JA-FACE ON UNIT   1025 AT TIME STEP    283, STRESS PERIOD      2
 UBDSV06 SAVING              WEL IN MODEL MODELBUOYF       PACKAGE MODELBUOYF      CONNECTED TO MODEL MODELBUOYF       PACKAGE WEL1             ON UNIT   1025 AT TIME STEP    283, STRESS PERIOD      2
 UBDSV06 SAVING              CHD IN MODEL MODELBUOYF       PACKAGE MODELBUOYF      CONNECTED TO MODEL MODELBUOYF       PACKAGE CHD1             ON UNIT   1025 AT TIME STEP    283, STRESS PERIOD      2

 DENSITY WILL BE SAVED ON UNIT 1023 AT END OF TIME STEP  283, STRESS PERIOD    2

 HEAD WILL BE SAVED ON UNIT 1026 AT END OF TIME STEP  283, STRESS PERIOD    2

end timestep


start timestep kper="2" kstp="284" mode="normal"

 UBDSV1 SAVING     FLOW-JA-FACE ON UNIT   1025 AT TIME STEP    284, STRESS PERIOD      2
 UBDSV06 SAVING              WEL IN MODEL MODELBUOYF       PACKAGE MODELBUOYF      CONNECTED TO MODEL MODELBUOYF       PACKAGE WEL1             ON UNIT   1025 AT TIME STEP    284, STRESS PERIOD      2
 UBDSV06 SAVING              CHD IN MODEL MODELBUOYF       PACKAGE MODELBUOYF      CONNECTED TO MODEL MODELBUOYF       PACKAGE CHD1             ON UNIT   1025 AT TIME STEP    284, STRESS PERIOD      2

 DENSITY WILL BE SAVED ON UNIT 1023 AT END OF TIME STEP  284, STRESS PERIOD    2

 HEAD WILL BE SAVED ON UNIT 1026 AT END OF TIME STEP  284, STRESS PERIOD    2

end timestep


start timestep kper="2" kstp="285" mode="normal"

 UBDSV1 SAVING     FLOW-JA-FACE ON UNIT   1025 AT TIME STEP    285, STRESS PERIOD      2
 UBDSV06 SAVING              WEL IN MODEL MODELBUOYF       PACKAGE MODELBUOYF      CONNECTED TO MODEL MODELBUOYF       PACKAGE WEL1             ON UNIT   1025 AT TIME STEP    285, STRESS PERIOD      2
 UBDSV06 SAVING              CHD IN MODEL MODELBUOYF       PACKAGE MODELBUOYF      CONNECTED TO MODEL MODELBUOYF       PACKAGE CHD1             ON UNIT   1025 AT TIME STEP    285, STRESS PERIOD      2

 DENSITY WILL BE SAVED ON UNIT 1023 AT END OF TIME STEP  285, STRESS PERIOD    2

 HEAD WILL BE SAVED ON UNIT 1026 AT END OF TIME STEP  285, STRESS PERIOD    2

end timestep


start timestep kper="2" kstp="286" mode="normal"

 UBDSV1 SAVING     FLOW-JA-FACE ON UNIT   1025 AT TIME STEP    286, STRESS PERIOD      2
 UBDSV06 SAVING              WEL IN MODEL MODELBUOYF       PACKAGE MODELBUOYF      CONNECTED TO MODEL MODELBUOYF       PACKAGE WEL1             ON UNIT   1025 AT TIME STEP    286, STRESS PERIOD      2
 UBDSV06 SAVING              CHD IN MODEL MODELBUOYF       PACKAGE MODELBUOYF      CONNECTED TO MODEL MODELBUOYF       PACKAGE CHD1             ON UNIT   1025 AT TIME STEP    286, STRESS PERIOD      2

 DENSITY WILL BE SAVED ON UNIT 1023 AT END OF TIME STEP  286, STRESS PERIOD    2

 HEAD WILL BE SAVED ON UNIT 1026 AT END OF TIME STEP  286, STRESS PERIOD    2

end timestep


start timestep kper="2" kstp="287" mode="normal"

 UBDSV1 SAVING     FLOW-JA-FACE ON UNIT   1025 AT TIME STEP    287, STRESS PERIOD      2
 UBDSV06 SAVING              WEL IN MODEL MODELBUOYF       PACKAGE MODELBUOYF      CONNECTED TO MODEL MODELBUOYF       PACKAGE WEL1             ON UNIT   1025 AT TIME STEP    287, STRESS PERIOD      2
 UBDSV06 SAVING              CHD IN MODEL MODELBUOYF       PACKAGE MODELBUOYF      CONNECTED TO MODEL MODELBUOYF       PACKAGE CHD1             ON UNIT   1025 AT TIME STEP    287, STRESS PERIOD      2

 DENSITY WILL BE SAVED ON UNIT 1023 AT END OF TIME STEP  287, STRESS PERIOD    2

 HEAD WILL BE SAVED ON UNIT 1026 AT END OF TIME STEP  287, STRESS PERIOD    2

end timestep


start timestep kper="2" kstp="288" mode="normal"

 UBDSV1 SAVING     FLOW-JA-FACE ON UNIT   1025 AT TIME STEP    288, STRESS PERIOD      2
 UBDSV06 SAVING              WEL IN MODEL MODELBUOYF       PACKAGE MODELBUOYF      CONNECTED TO MODEL MODELBUOYF       PACKAGE WEL1             ON UNIT   1025 AT TIME STEP    288, STRESS PERIOD      2
 UBDSV06 SAVING              CHD IN MODEL MODELBUOYF       PACKAGE MODELBUOYF      CONNECTED TO MODEL MODELBUOYF       PACKAGE CHD1             ON UNIT   1025 AT TIME STEP    288, STRESS PERIOD      2

 DENSITY WILL BE SAVED ON UNIT 1023 AT END OF TIME STEP  288, STRESS PERIOD    2

 HEAD WILL BE SAVED ON UNIT 1026 AT END OF TIME STEP  288, STRESS PERIOD    2

end timestep


start timestep kper="2" kstp="289" mode="normal"

 UBDSV1 SAVING     FLOW-JA-FACE ON UNIT   1025 AT TIME STEP    289, STRESS PERIOD      2
 UBDSV06 SAVING              WEL IN MODEL MODELBUOYF       PACKAGE MODELBUOYF      CONNECTED TO MODEL MODELBUOYF       PACKAGE WEL1             ON UNIT   1025 AT TIME STEP    289, STRESS PERIOD      2
 UBDSV06 SAVING              CHD IN MODEL MODELBUOYF       PACKAGE MODELBUOYF      CONNECTED TO MODEL MODELBUOYF       PACKAGE CHD1             ON UNIT   1025 AT TIME STEP    289, STRESS PERIOD      2

 DENSITY WILL BE SAVED ON UNIT 1023 AT END OF TIME STEP  289, STRESS PERIOD    2

 HEAD WILL BE SAVED ON UNIT 1026 AT END OF TIME STEP  289, STRESS PERIOD    2

end timestep


start timestep kper="2" kstp="290" mode="normal"

 UBDSV1 SAVING     FLOW-JA-FACE ON UNIT   1025 AT TIME STEP    290, STRESS PERIOD      2
 UBDSV06 SAVING              WEL IN MODEL MODELBUOYF       PACKAGE MODELBUOYF      CONNECTED TO MODEL MODELBUOYF       PACKAGE WEL1             ON UNIT   1025 AT TIME STEP    290, STRESS PERIOD      2
 UBDSV06 SAVING              CHD IN MODEL MODELBUOYF       PACKAGE MODELBUOYF      CONNECTED TO MODEL MODELBUOYF       PACKAGE CHD1             ON UNIT   1025 AT TIME STEP    290, STRESS PERIOD      2

 DENSITY WILL BE SAVED ON UNIT 1023 AT END OF TIME STEP  290, STRESS PERIOD    2

 HEAD WILL BE SAVED ON UNIT 1026 AT END OF TIME STEP  290, STRESS PERIOD    2

end timestep


start timestep kper="2" kstp="291" mode="normal"

 UBDSV1 SAVING     FLOW-JA-FACE ON UNIT   1025 AT TIME STEP    291, STRESS PERIOD      2
 UBDSV06 SAVING              WEL IN MODEL MODELBUOYF       PACKAGE MODELBUOYF      CONNECTED TO MODEL MODELBUOYF       PACKAGE WEL1             ON UNIT   1025 AT TIME STEP    291, STRESS PERIOD      2
 UBDSV06 SAVING              CHD IN MODEL MODELBUOYF       PACKAGE MODELBUOYF      CONNECTED TO MODEL MODELBUOYF       PACKAGE CHD1             ON UNIT   1025 AT TIME STEP    291, STRESS PERIOD      2

 DENSITY WILL BE SAVED ON UNIT 1023 AT END OF TIME STEP  291, STRESS PERIOD    2

 HEAD WILL BE SAVED ON UNIT 1026 AT END OF TIME STEP  291, STRESS PERIOD    2

end timestep


start timestep kper="2" kstp="292" mode="normal"

 UBDSV1 SAVING     FLOW-JA-FACE ON UNIT   1025 AT TIME STEP    292, STRESS PERIOD      2
 UBDSV06 SAVING              WEL IN MODEL MODELBUOYF       PACKAGE MODELBUOYF      CONNECTED TO MODEL MODELBUOYF       PACKAGE WEL1             ON UNIT   1025 AT TIME STEP    292, STRESS PERIOD      2
 UBDSV06 SAVING              CHD IN MODEL MODELBUOYF       PACKAGE MODELBUOYF      CONNECTED TO MODEL MODELBUOYF       PACKAGE CHD1             ON UNIT   1025 AT TIME STEP    292, STRESS PERIOD      2

 DENSITY WILL BE SAVED ON UNIT 1023 AT END OF TIME STEP  292, STRESS PERIOD    2

 HEAD WILL BE SAVED ON UNIT 1026 AT END OF TIME STEP  292, STRESS PERIOD    2

end timestep


start timestep kper="2" kstp="293" mode="normal"

 UBDSV1 SAVING     FLOW-JA-FACE ON UNIT   1025 AT TIME STEP    293, STRESS PERIOD      2
 UBDSV06 SAVING              WEL IN MODEL MODELBUOYF       PACKAGE MODELBUOYF      CONNECTED TO MODEL MODELBUOYF       PACKAGE WEL1             ON UNIT   1025 AT TIME STEP    293, STRESS PERIOD      2
 UBDSV06 SAVING              CHD IN MODEL MODELBUOYF       PACKAGE MODELBUOYF      CONNECTED TO MODEL MODELBUOYF       PACKAGE CHD1             ON UNIT   1025 AT TIME STEP    293, STRESS PERIOD      2

 DENSITY WILL BE SAVED ON UNIT 1023 AT END OF TIME STEP  293, STRESS PERIOD    2

 HEAD WILL BE SAVED ON UNIT 1026 AT END OF TIME STEP  293, STRESS PERIOD    2

end timestep


start timestep kper="2" kstp="294" mode="normal"

 UBDSV1 SAVING     FLOW-JA-FACE ON UNIT   1025 AT TIME STEP    294, STRESS PERIOD      2
 UBDSV06 SAVING              WEL IN MODEL MODELBUOYF       PACKAGE MODELBUOYF      CONNECTED TO MODEL MODELBUOYF       PACKAGE WEL1             ON UNIT   1025 AT TIME STEP    294, STRESS PERIOD      2
 UBDSV06 SAVING              CHD IN MODEL MODELBUOYF       PACKAGE MODELBUOYF      CONNECTED TO MODEL MODELBUOYF       PACKAGE CHD1             ON UNIT   1025 AT TIME STEP    294, STRESS PERIOD      2

 DENSITY WILL BE SAVED ON UNIT 1023 AT END OF TIME STEP  294, STRESS PERIOD    2

 HEAD WILL BE SAVED ON UNIT 1026 AT END OF TIME STEP  294, STRESS PERIOD    2

end timestep


start timestep kper="2" kstp="295" mode="normal"

 UBDSV1 SAVING     FLOW-JA-FACE ON UNIT   1025 AT TIME STEP    295, STRESS PERIOD      2
 UBDSV06 SAVING              WEL IN MODEL MODELBUOYF       PACKAGE MODELBUOYF      CONNECTED TO MODEL MODELBUOYF       PACKAGE WEL1             ON UNIT   1025 AT TIME STEP    295, STRESS PERIOD      2
 UBDSV06 SAVING              CHD IN MODEL MODELBUOYF       PACKAGE MODELBUOYF      CONNECTED TO MODEL MODELBUOYF       PACKAGE CHD1             ON UNIT   1025 AT TIME STEP    295, STRESS PERIOD      2

 DENSITY WILL BE SAVED ON UNIT 1023 AT END OF TIME STEP  295, STRESS PERIOD    2

 HEAD WILL BE SAVED ON UNIT 1026 AT END OF TIME STEP  295, STRESS PERIOD    2

end timestep


start timestep kper="2" kstp="296" mode="normal"

 UBDSV1 SAVING     FLOW-JA-FACE ON UNIT   1025 AT TIME STEP    296, STRESS PERIOD      2
 UBDSV06 SAVING              WEL IN MODEL MODELBUOYF       PACKAGE MODELBUOYF      CONNECTED TO MODEL MODELBUOYF       PACKAGE WEL1             ON UNIT   1025 AT TIME STEP    296, STRESS PERIOD      2
 UBDSV06 SAVING              CHD IN MODEL MODELBUOYF       PACKAGE MODELBUOYF      CONNECTED TO MODEL MODELBUOYF       PACKAGE CHD1             ON UNIT   1025 AT TIME STEP    296, STRESS PERIOD      2

 DENSITY WILL BE SAVED ON UNIT 1023 AT END OF TIME STEP  296, STRESS PERIOD    2

 HEAD WILL BE SAVED ON UNIT 1026 AT END OF TIME STEP  296, STRESS PERIOD    2

end timestep


start timestep kper="2" kstp="297" mode="normal"

 UBDSV1 SAVING     FLOW-JA-FACE ON UNIT   1025 AT TIME STEP    297, STRESS PERIOD      2
 UBDSV06 SAVING              WEL IN MODEL MODELBUOYF       PACKAGE MODELBUOYF      CONNECTED TO MODEL MODELBUOYF       PACKAGE WEL1             ON UNIT   1025 AT TIME STEP    297, STRESS PERIOD      2
 UBDSV06 SAVING              CHD IN MODEL MODELBUOYF       PACKAGE MODELBUOYF      CONNECTED TO MODEL MODELBUOYF       PACKAGE CHD1             ON UNIT   1025 AT TIME STEP    297, STRESS PERIOD      2

 DENSITY WILL BE SAVED ON UNIT 1023 AT END OF TIME STEP  297, STRESS PERIOD    2

 HEAD WILL BE SAVED ON UNIT 1026 AT END OF TIME STEP  297, STRESS PERIOD    2

end timestep


start timestep kper="2" kstp="298" mode="normal"

 UBDSV1 SAVING     FLOW-JA-FACE ON UNIT   1025 AT TIME STEP    298, STRESS PERIOD      2
 UBDSV06 SAVING              WEL IN MODEL MODELBUOYF       PACKAGE MODELBUOYF      CONNECTED TO MODEL MODELBUOYF       PACKAGE WEL1             ON UNIT   1025 AT TIME STEP    298, STRESS PERIOD      2
 UBDSV06 SAVING              CHD IN MODEL MODELBUOYF       PACKAGE MODELBUOYF      CONNECTED TO MODEL MODELBUOYF       PACKAGE CHD1             ON UNIT   1025 AT TIME STEP    298, STRESS PERIOD      2

 DENSITY WILL BE SAVED ON UNIT 1023 AT END OF TIME STEP  298, STRESS PERIOD    2

 HEAD WILL BE SAVED ON UNIT 1026 AT END OF TIME STEP  298, STRESS PERIOD    2

end timestep


start timestep kper="2" kstp="299" mode="normal"

 UBDSV1 SAVING     FLOW-JA-FACE ON UNIT   1025 AT TIME STEP    299, STRESS PERIOD      2
 UBDSV06 SAVING              WEL IN MODEL MODELBUOYF       PACKAGE MODELBUOYF      CONNECTED TO MODEL MODELBUOYF       PACKAGE WEL1             ON UNIT   1025 AT TIME STEP    299, STRESS PERIOD      2
 UBDSV06 SAVING              CHD IN MODEL MODELBUOYF       PACKAGE MODELBUOYF      CONNECTED TO MODEL MODELBUOYF       PACKAGE CHD1             ON UNIT   1025 AT TIME STEP    299, STRESS PERIOD      2

 DENSITY WILL BE SAVED ON UNIT 1023 AT END OF TIME STEP  299, STRESS PERIOD    2

 HEAD WILL BE SAVED ON UNIT 1026 AT END OF TIME STEP  299, STRESS PERIOD    2

end timestep


start timestep kper="2" kstp="300" mode="normal"

 UBDSV1 SAVING     FLOW-JA-FACE ON UNIT   1025 AT TIME STEP    300, STRESS PERIOD      2
 UBDSV06 SAVING              WEL IN MODEL MODELBUOYF       PACKAGE MODELBUOYF      CONNECTED TO MODEL MODELBUOYF       PACKAGE WEL1             ON UNIT   1025 AT TIME STEP    300, STRESS PERIOD      2
 UBDSV06 SAVING              CHD IN MODEL MODELBUOYF       PACKAGE MODELBUOYF      CONNECTED TO MODEL MODELBUOYF       PACKAGE CHD1             ON UNIT   1025 AT TIME STEP    300, STRESS PERIOD      2

 DENSITY WILL BE SAVED ON UNIT 1023 AT END OF TIME STEP  300, STRESS PERIOD    2

 HEAD WILL BE SAVED ON UNIT 1026 AT END OF TIME STEP  300, STRESS PERIOD    2


  VOLUME BUDGET FOR ENTIRE MODEL AT END OF TIME STEP  300, STRESS PERIOD   2
  ---------------------------------------------------------------------------------------------------

     CUMULATIVE VOLUME      L**3       RATES FOR THIS TIME STEP      L**3/T          PACKAGE NAME    
     ------------------                 ------------------------                     ----------------

           IN:                                      IN:
           ---                                      ---
                 WEL =       15000.0000                   WEL =           0.0000     WEL1                             
                 CHD =       14911.7152                   CHD =         496.8650     CHD1                             

            TOTAL IN =       29911.7152              TOTAL IN =         496.8650

          OUT:                                     OUT:
          ----                                     ----
                 WEL =       15000.0000                   WEL =         500.0000     WEL1                             
                 CHD =       14929.7553                   CHD =           0.0000     CHD1                             

           TOTAL OUT =       29929.7553             TOTAL OUT =         500.0000

            IN - OUT =         -18.0400              IN - OUT =          -3.1350

 PERCENT DISCREPANCY =          -0.06     PERCENT DISCREPANCY =          -0.63




         TIME SUMMARY AT END OF TIME STEP  300 IN STRESS PERIOD    2
                    SECONDS     MINUTES      HOURS       DAYS        YEARS
                    -----------------------------------------------------------
   TIME STEP LENGTH  8640.0      144.00      2.4000     0.10000     2.73785E-04
 STRESS PERIOD TIME 2.59200E+06  43200.      720.00      30.000     8.21355E-02
         TOTAL TIME 5.18400E+06  86400.      1440.0      60.000     0.16427    


end timestep

