                                   MODFLOW 6
                U.S. GEOLOGICAL SURVEY MODULAR HYDROLOGIC MODEL
                          GROUNDWATER FLOW MODEL (GWF)
                            VERSION 6.4.2 06/28/2023

   MODFLOW 6 compiled Jul 05 2023 20:31:54 with Intel(R) Fortran Intel(R) 64
   Compiler Classic for applications running on Intel(R) 64, Version 2021.7.0
                             Build 20220726_000000

This software has been approved for release by the U.S. Geological 
Survey (USGS). Although the software has been subjected to rigorous 
review, the USGS reserves the right to update the software as needed 
pursuant to further analysis and review. No warranty, expressed or 
implied, is made by the USGS or the U.S. Government as to the 
functionality of the software and related material nor shall the 
fact of release constitute any such warranty. Furthermore, the 
software is released on condition that neither the USGS nor the U.S. 
Government shall be held liable for any damages resulting from its 
authorized or unauthorized use. Also refer to the USGS Water 
Resources Software User Rights Notice for complete use, copyright, 
and distribution information.


As a work of the United States Government, this USGS product is 
in the public domain within the United States. You can copy, 
modify, distribute, and perform the work, even for commercial 
purposes, all without asking permission. Additionally, USGS 
waives copyright and related rights in the work worldwide 
through CC0 1.0 Universal Public Domain Dedication 
(https://creativecommons.org/publicdomain/zero/1.0/).

The following GNU Lesser General Public License (LGPL) libraries
are used in this USGS product:

    SPARSKIT version 2.0
      ilut, luson, and qsplit 
      (https://www-users.cse.umn.edu/~saad/software/SPARSKIT/)

    RCM - Reverse Cuthill McKee Ordering
      (https://people.math.sc.edu/Burkardt/f_src/rcm/rcm.html)

    BLAS - Basic Linear Algebra Subprograms Level 1
      (https://people.math.sc.edu/Burkardt/f_src/blas1_d/blas1_d.html)

    SPARSEKIT - Sparse Matrix Utility Package
      amux, dperm, dvperm, rperm, and cperm
      (https://people.sc.fsu.edu/~jburkardt/f77_src/sparsekit/sparsekit.html)

The following BSD-3 License libraries are used in this USGS product:

    Modern Fortran DAG Library
      Copyright (c) 2018, Jacob Williams
      All rights reserved.
      (https://github.com/jacobwilliams/daglib)

MODFLOW 6 compiler options: /O2 /heap-arrays:0 /fpe:0 /traceback /nologo /fpp
/c /module:win64\mod_mf6\ /object:win64\obj_mf6\

System command used to initiate simulation:
"C:\Users\924878\Documents\Subsurface flow\bin\mf6.exe"

MODFLOW was compiled using uniform precision.

Real Variables
  KIND: 8
  TINY (smallest non-zero value):    2.225074-308
  HUGE (largest value):    1.797693+308
  PRECISION: 15
  SIZE IN BITS: 64

Integer Variables
  KIND: 4
  HUGE (largest value): 2147483647
  SIZE IN BITS: 32

Long Integer Variables
  KIND: 8
  HUGE (largest value): 9223372036854775807
  SIZE IN BITS: 64

Logical Variables
  KIND: 4
  SIZE IN BITS: 32
 
 NAMEFILE OPTIONS:
    FLOWS WILL BE SAVED TO BUDGET FILE SPECIFIED IN OUTPUT CONTROL
 END NAMEFILE OPTIONS:

 DIS -- STRUCTURED GRID DISCRETIZATION PACKAGE, VERSION 2 : 3/27/2014 - INPUT READ FROM MEMPATH: __INPUT__/MODEL1D_CYCLEF/DIS                      


 NPF -- NODE PROPERTY FLOW PACKAGE, VERSION 1, 3/30/2015 INPUT READ FROM MEMPATH: __INPUT__/MODEL1D_CYCLEF/NPF                      

 Setting Discretization Options
 End Setting Discretization Options

 Setting Discretization Dimensions
    NLAY = 1
    NROW = 1
    NCOL = 400
 End Setting Discretization Dimensions

 Setting Discretization Griddata
    DELR set from input file
    DELC set from input file
    TOP set from input file
    BOTM set from input file
 End Setting Discretization Griddata

 Setting NPF Options
    Cell-by-cell flow information will be saved to binary file whenever ICBCFL is not zero.
 End Setting NPF Options

 Setting NPF Griddata
    ICELLTYPE set from input file
    K set from input file
    K33 not provided.  Setting K33 = K.
    K22 not provided.  Setting K22 = K.
 End Setting NPF Griddata


 WEL   -- WEL PACKAGE, VERSION 8, 2/22/2014 INPUT READ FROM UNIT 1007
 # File generated by Flopy version 3.4.3 on 11/21/2023 at 15:17:46.

 PROCESSING WEL OPTIONS
    AUXILIARY WEL VARIABLE: CONCENTRATION   
 END OF WEL OPTIONS

 PROCESSING WEL DIMENSIONS
    MAXBOUND =       1
 END OF WEL DIMENSIONS

 CHD   -- CHD PACKAGE, VERSION 8, 2/22/2014 INPUT READ FROM UNIT 1008
 # File generated by Flopy version 3.4.3 on 11/21/2023 at 15:17:46.

 PROCESSING CHD OPTIONS
    AUXILIARY CHD VARIABLE: CONCENTRATION   
 END OF CHD OPTIONS

 PROCESSING CHD DIMENSIONS
    MAXBOUND =       1
 END OF CHD DIMENSIONS

 IC -- INITIAL CONDITIONS PACKAGE, VERSION 8, 3/28/2015 INPUT READ FROM UNIT 1005
 # File generated by Flopy version 3.4.3 on 11/21/2023 at 15:17:46.
 PROCESSING GRIDDATA

     INITIAL HEAD =   0.000000    
 END PROCESSING GRIDDATA
    BINARY GRID INFORMATION WILL BE WRITTEN TO:
      UNIT NUMBER: 1022
      FILE NAME: model1d_cyclef.dis.grb

 OPENED model1d_cyclef.dis.grb
 FILE TYPE:DATA(BINARY)   UNIT 1022   STATUS:REPLACE             
 FORMAT:UNFORMATTED            ACCESS:STREAM              
 ACTION:READWRITE           

      THE LAST TIME STEP WILL BE PRINTED
      THE LAST TIME STEP WILL BE PRINTED
 # File generated by Flopy version 3.4.3 on 11/21/2023 at 15:17:46.

 PROCESSING OC OPTIONS

    BUDGET INFORMATION WILL BE WRITTEN TO:
      UNIT NUMBER: 1023
      FILE NAME: model1d_cyclef.cbc

 OPENED model1d_cyclef.cbc
 FILE TYPE:DATA(BINARY)   UNIT 1023   STATUS:REPLACE             
 FORMAT:UNFORMATTED            ACCESS:STREAM              
 ACTION:READWRITE           

    HEAD INFORMATION WILL BE WRITTEN TO:
      UNIT NUMBER: 1024
      FILE NAME: model1d_cyclef.hds

 OPENED model1d_cyclef.hds
 FILE TYPE:DATA(BINARY)   UNIT 1024   STATUS:REPLACE             
 FORMAT:UNFORMATTED            ACCESS:STREAM              
 ACTION:READWRITE           

 END OF OC OPTIONS

start timestep kper="1" kstp="1" mode="normal"


 BEGIN READING OUTPUT CONTROL FOR STRESS PERIOD 1
      ALL TIME STEPS WILL BE SAVED
      ALL TIME STEPS WILL BE SAVED

 END READING OUTPUT CONTROL FOR STRESS PERIOD 1
 UBDSV1 SAVING     FLOW-JA-FACE ON UNIT   1023 AT TIME STEP      1, STRESS PERIOD      1
 UBDSV06 SAVING              WEL IN MODEL MODEL1D_CYCLEF   PACKAGE MODEL1D_CYCLEF  CONNECTED TO MODEL MODEL1D_CYCLEF   PACKAGE WEL1             ON UNIT   1023 AT TIME STEP      1, STRESS PERIOD      1
 UBDSV06 SAVING              CHD IN MODEL MODEL1D_CYCLEF   PACKAGE MODEL1D_CYCLEF  CONNECTED TO MODEL MODEL1D_CYCLEF   PACKAGE CHD1             ON UNIT   1023 AT TIME STEP      1, STRESS PERIOD      1

 HEAD WILL BE SAVED ON UNIT 1024 AT END OF TIME STEP    1, STRESS PERIOD    1

end timestep


start timestep kper="1" kstp="2" mode="normal"

 UBDSV1 SAVING     FLOW-JA-FACE ON UNIT   1023 AT TIME STEP      2, STRESS PERIOD      1
 UBDSV06 SAVING              WEL IN MODEL MODEL1D_CYCLEF   PACKAGE MODEL1D_CYCLEF  CONNECTED TO MODEL MODEL1D_CYCLEF   PACKAGE WEL1             ON UNIT   1023 AT TIME STEP      2, STRESS PERIOD      1
 UBDSV06 SAVING              CHD IN MODEL MODEL1D_CYCLEF   PACKAGE MODEL1D_CYCLEF  CONNECTED TO MODEL MODEL1D_CYCLEF   PACKAGE CHD1             ON UNIT   1023 AT TIME STEP      2, STRESS PERIOD      1

 HEAD WILL BE SAVED ON UNIT 1024 AT END OF TIME STEP    2, STRESS PERIOD    1

end timestep


start timestep kper="1" kstp="3" mode="normal"

 UBDSV1 SAVING     FLOW-JA-FACE ON UNIT   1023 AT TIME STEP      3, STRESS PERIOD      1
 UBDSV06 SAVING              WEL IN MODEL MODEL1D_CYCLEF   PACKAGE MODEL1D_CYCLEF  CONNECTED TO MODEL MODEL1D_CYCLEF   PACKAGE WEL1             ON UNIT   1023 AT TIME STEP      3, STRESS PERIOD      1
 UBDSV06 SAVING              CHD IN MODEL MODEL1D_CYCLEF   PACKAGE MODEL1D_CYCLEF  CONNECTED TO MODEL MODEL1D_CYCLEF   PACKAGE CHD1             ON UNIT   1023 AT TIME STEP      3, STRESS PERIOD      1

 HEAD WILL BE SAVED ON UNIT 1024 AT END OF TIME STEP    3, STRESS PERIOD    1

end timestep


start timestep kper="1" kstp="4" mode="normal"

 UBDSV1 SAVING     FLOW-JA-FACE ON UNIT   1023 AT TIME STEP      4, STRESS PERIOD      1
 UBDSV06 SAVING              WEL IN MODEL MODEL1D_CYCLEF   PACKAGE MODEL1D_CYCLEF  CONNECTED TO MODEL MODEL1D_CYCLEF   PACKAGE WEL1             ON UNIT   1023 AT TIME STEP      4, STRESS PERIOD      1
 UBDSV06 SAVING              CHD IN MODEL MODEL1D_CYCLEF   PACKAGE MODEL1D_CYCLEF  CONNECTED TO MODEL MODEL1D_CYCLEF   PACKAGE CHD1             ON UNIT   1023 AT TIME STEP      4, STRESS PERIOD      1

 HEAD WILL BE SAVED ON UNIT 1024 AT END OF TIME STEP    4, STRESS PERIOD    1

end timestep


start timestep kper="1" kstp="5" mode="normal"

 UBDSV1 SAVING     FLOW-JA-FACE ON UNIT   1023 AT TIME STEP      5, STRESS PERIOD      1
 UBDSV06 SAVING              WEL IN MODEL MODEL1D_CYCLEF   PACKAGE MODEL1D_CYCLEF  CONNECTED TO MODEL MODEL1D_CYCLEF   PACKAGE WEL1             ON UNIT   1023 AT TIME STEP      5, STRESS PERIOD      1
 UBDSV06 SAVING              CHD IN MODEL MODEL1D_CYCLEF   PACKAGE MODEL1D_CYCLEF  CONNECTED TO MODEL MODEL1D_CYCLEF   PACKAGE CHD1             ON UNIT   1023 AT TIME STEP      5, STRESS PERIOD      1

 HEAD WILL BE SAVED ON UNIT 1024 AT END OF TIME STEP    5, STRESS PERIOD    1

end timestep


start timestep kper="1" kstp="6" mode="normal"

 UBDSV1 SAVING     FLOW-JA-FACE ON UNIT   1023 AT TIME STEP      6, STRESS PERIOD      1
 UBDSV06 SAVING              WEL IN MODEL MODEL1D_CYCLEF   PACKAGE MODEL1D_CYCLEF  CONNECTED TO MODEL MODEL1D_CYCLEF   PACKAGE WEL1             ON UNIT   1023 AT TIME STEP      6, STRESS PERIOD      1
 UBDSV06 SAVING              CHD IN MODEL MODEL1D_CYCLEF   PACKAGE MODEL1D_CYCLEF  CONNECTED TO MODEL MODEL1D_CYCLEF   PACKAGE CHD1             ON UNIT   1023 AT TIME STEP      6, STRESS PERIOD      1

 HEAD WILL BE SAVED ON UNIT 1024 AT END OF TIME STEP    6, STRESS PERIOD    1

end timestep


start timestep kper="1" kstp="7" mode="normal"

 UBDSV1 SAVING     FLOW-JA-FACE ON UNIT   1023 AT TIME STEP      7, STRESS PERIOD      1
 UBDSV06 SAVING              WEL IN MODEL MODEL1D_CYCLEF   PACKAGE MODEL1D_CYCLEF  CONNECTED TO MODEL MODEL1D_CYCLEF   PACKAGE WEL1             ON UNIT   1023 AT TIME STEP      7, STRESS PERIOD      1
 UBDSV06 SAVING              CHD IN MODEL MODEL1D_CYCLEF   PACKAGE MODEL1D_CYCLEF  CONNECTED TO MODEL MODEL1D_CYCLEF   PACKAGE CHD1             ON UNIT   1023 AT TIME STEP      7, STRESS PERIOD      1

 HEAD WILL BE SAVED ON UNIT 1024 AT END OF TIME STEP    7, STRESS PERIOD    1

end timestep


start timestep kper="1" kstp="8" mode="normal"

 UBDSV1 SAVING     FLOW-JA-FACE ON UNIT   1023 AT TIME STEP      8, STRESS PERIOD      1
 UBDSV06 SAVING              WEL IN MODEL MODEL1D_CYCLEF   PACKAGE MODEL1D_CYCLEF  CONNECTED TO MODEL MODEL1D_CYCLEF   PACKAGE WEL1             ON UNIT   1023 AT TIME STEP      8, STRESS PERIOD      1
 UBDSV06 SAVING              CHD IN MODEL MODEL1D_CYCLEF   PACKAGE MODEL1D_CYCLEF  CONNECTED TO MODEL MODEL1D_CYCLEF   PACKAGE CHD1             ON UNIT   1023 AT TIME STEP      8, STRESS PERIOD      1

 HEAD WILL BE SAVED ON UNIT 1024 AT END OF TIME STEP    8, STRESS PERIOD    1

end timestep


start timestep kper="1" kstp="9" mode="normal"

 UBDSV1 SAVING     FLOW-JA-FACE ON UNIT   1023 AT TIME STEP      9, STRESS PERIOD      1
 UBDSV06 SAVING              WEL IN MODEL MODEL1D_CYCLEF   PACKAGE MODEL1D_CYCLEF  CONNECTED TO MODEL MODEL1D_CYCLEF   PACKAGE WEL1             ON UNIT   1023 AT TIME STEP      9, STRESS PERIOD      1
 UBDSV06 SAVING              CHD IN MODEL MODEL1D_CYCLEF   PACKAGE MODEL1D_CYCLEF  CONNECTED TO MODEL MODEL1D_CYCLEF   PACKAGE CHD1             ON UNIT   1023 AT TIME STEP      9, STRESS PERIOD      1

 HEAD WILL BE SAVED ON UNIT 1024 AT END OF TIME STEP    9, STRESS PERIOD    1

end timestep


start timestep kper="1" kstp="10" mode="normal"

 UBDSV1 SAVING     FLOW-JA-FACE ON UNIT   1023 AT TIME STEP     10, STRESS PERIOD      1
 UBDSV06 SAVING              WEL IN MODEL MODEL1D_CYCLEF   PACKAGE MODEL1D_CYCLEF  CONNECTED TO MODEL MODEL1D_CYCLEF   PACKAGE WEL1             ON UNIT   1023 AT TIME STEP     10, STRESS PERIOD      1
 UBDSV06 SAVING              CHD IN MODEL MODEL1D_CYCLEF   PACKAGE MODEL1D_CYCLEF  CONNECTED TO MODEL MODEL1D_CYCLEF   PACKAGE CHD1             ON UNIT   1023 AT TIME STEP     10, STRESS PERIOD      1

 HEAD WILL BE SAVED ON UNIT 1024 AT END OF TIME STEP   10, STRESS PERIOD    1

end timestep


start timestep kper="1" kstp="11" mode="normal"

 UBDSV1 SAVING     FLOW-JA-FACE ON UNIT   1023 AT TIME STEP     11, STRESS PERIOD      1
 UBDSV06 SAVING              WEL IN MODEL MODEL1D_CYCLEF   PACKAGE MODEL1D_CYCLEF  CONNECTED TO MODEL MODEL1D_CYCLEF   PACKAGE WEL1             ON UNIT   1023 AT TIME STEP     11, STRESS PERIOD      1
 UBDSV06 SAVING              CHD IN MODEL MODEL1D_CYCLEF   PACKAGE MODEL1D_CYCLEF  CONNECTED TO MODEL MODEL1D_CYCLEF   PACKAGE CHD1             ON UNIT   1023 AT TIME STEP     11, STRESS PERIOD      1

 HEAD WILL BE SAVED ON UNIT 1024 AT END OF TIME STEP   11, STRESS PERIOD    1

end timestep


start timestep kper="1" kstp="12" mode="normal"

 UBDSV1 SAVING     FLOW-JA-FACE ON UNIT   1023 AT TIME STEP     12, STRESS PERIOD      1
 UBDSV06 SAVING              WEL IN MODEL MODEL1D_CYCLEF   PACKAGE MODEL1D_CYCLEF  CONNECTED TO MODEL MODEL1D_CYCLEF   PACKAGE WEL1             ON UNIT   1023 AT TIME STEP     12, STRESS PERIOD      1
 UBDSV06 SAVING              CHD IN MODEL MODEL1D_CYCLEF   PACKAGE MODEL1D_CYCLEF  CONNECTED TO MODEL MODEL1D_CYCLEF   PACKAGE CHD1             ON UNIT   1023 AT TIME STEP     12, STRESS PERIOD      1

 HEAD WILL BE SAVED ON UNIT 1024 AT END OF TIME STEP   12, STRESS PERIOD    1

end timestep


start timestep kper="1" kstp="13" mode="normal"

 UBDSV1 SAVING     FLOW-JA-FACE ON UNIT   1023 AT TIME STEP     13, STRESS PERIOD      1
 UBDSV06 SAVING              WEL IN MODEL MODEL1D_CYCLEF   PACKAGE MODEL1D_CYCLEF  CONNECTED TO MODEL MODEL1D_CYCLEF   PACKAGE WEL1             ON UNIT   1023 AT TIME STEP     13, STRESS PERIOD      1
 UBDSV06 SAVING              CHD IN MODEL MODEL1D_CYCLEF   PACKAGE MODEL1D_CYCLEF  CONNECTED TO MODEL MODEL1D_CYCLEF   PACKAGE CHD1             ON UNIT   1023 AT TIME STEP     13, STRESS PERIOD      1

 HEAD WILL BE SAVED ON UNIT 1024 AT END OF TIME STEP   13, STRESS PERIOD    1

end timestep


start timestep kper="1" kstp="14" mode="normal"

 UBDSV1 SAVING     FLOW-JA-FACE ON UNIT   1023 AT TIME STEP     14, STRESS PERIOD      1
 UBDSV06 SAVING              WEL IN MODEL MODEL1D_CYCLEF   PACKAGE MODEL1D_CYCLEF  CONNECTED TO MODEL MODEL1D_CYCLEF   PACKAGE WEL1             ON UNIT   1023 AT TIME STEP     14, STRESS PERIOD      1
 UBDSV06 SAVING              CHD IN MODEL MODEL1D_CYCLEF   PACKAGE MODEL1D_CYCLEF  CONNECTED TO MODEL MODEL1D_CYCLEF   PACKAGE CHD1             ON UNIT   1023 AT TIME STEP     14, STRESS PERIOD      1

 HEAD WILL BE SAVED ON UNIT 1024 AT END OF TIME STEP   14, STRESS PERIOD    1

end timestep


start timestep kper="1" kstp="15" mode="normal"

 UBDSV1 SAVING     FLOW-JA-FACE ON UNIT   1023 AT TIME STEP     15, STRESS PERIOD      1
 UBDSV06 SAVING              WEL IN MODEL MODEL1D_CYCLEF   PACKAGE MODEL1D_CYCLEF  CONNECTED TO MODEL MODEL1D_CYCLEF   PACKAGE WEL1             ON UNIT   1023 AT TIME STEP     15, STRESS PERIOD      1
 UBDSV06 SAVING              CHD IN MODEL MODEL1D_CYCLEF   PACKAGE MODEL1D_CYCLEF  CONNECTED TO MODEL MODEL1D_CYCLEF   PACKAGE CHD1             ON UNIT   1023 AT TIME STEP     15, STRESS PERIOD      1

 HEAD WILL BE SAVED ON UNIT 1024 AT END OF TIME STEP   15, STRESS PERIOD    1

end timestep


start timestep kper="1" kstp="16" mode="normal"

 UBDSV1 SAVING     FLOW-JA-FACE ON UNIT   1023 AT TIME STEP     16, STRESS PERIOD      1
 UBDSV06 SAVING              WEL IN MODEL MODEL1D_CYCLEF   PACKAGE MODEL1D_CYCLEF  CONNECTED TO MODEL MODEL1D_CYCLEF   PACKAGE WEL1             ON UNIT   1023 AT TIME STEP     16, STRESS PERIOD      1
 UBDSV06 SAVING              CHD IN MODEL MODEL1D_CYCLEF   PACKAGE MODEL1D_CYCLEF  CONNECTED TO MODEL MODEL1D_CYCLEF   PACKAGE CHD1             ON UNIT   1023 AT TIME STEP     16, STRESS PERIOD      1

 HEAD WILL BE SAVED ON UNIT 1024 AT END OF TIME STEP   16, STRESS PERIOD    1

end timestep


start timestep kper="1" kstp="17" mode="normal"

 UBDSV1 SAVING     FLOW-JA-FACE ON UNIT   1023 AT TIME STEP     17, STRESS PERIOD      1
 UBDSV06 SAVING              WEL IN MODEL MODEL1D_CYCLEF   PACKAGE MODEL1D_CYCLEF  CONNECTED TO MODEL MODEL1D_CYCLEF   PACKAGE WEL1             ON UNIT   1023 AT TIME STEP     17, STRESS PERIOD      1
 UBDSV06 SAVING              CHD IN MODEL MODEL1D_CYCLEF   PACKAGE MODEL1D_CYCLEF  CONNECTED TO MODEL MODEL1D_CYCLEF   PACKAGE CHD1             ON UNIT   1023 AT TIME STEP     17, STRESS PERIOD      1

 HEAD WILL BE SAVED ON UNIT 1024 AT END OF TIME STEP   17, STRESS PERIOD    1

end timestep


start timestep kper="1" kstp="18" mode="normal"

 UBDSV1 SAVING     FLOW-JA-FACE ON UNIT   1023 AT TIME STEP     18, STRESS PERIOD      1
 UBDSV06 SAVING              WEL IN MODEL MODEL1D_CYCLEF   PACKAGE MODEL1D_CYCLEF  CONNECTED TO MODEL MODEL1D_CYCLEF   PACKAGE WEL1             ON UNIT   1023 AT TIME STEP     18, STRESS PERIOD      1
 UBDSV06 SAVING              CHD IN MODEL MODEL1D_CYCLEF   PACKAGE MODEL1D_CYCLEF  CONNECTED TO MODEL MODEL1D_CYCLEF   PACKAGE CHD1             ON UNIT   1023 AT TIME STEP     18, STRESS PERIOD      1

 HEAD WILL BE SAVED ON UNIT 1024 AT END OF TIME STEP   18, STRESS PERIOD    1

end timestep


start timestep kper="1" kstp="19" mode="normal"

 UBDSV1 SAVING     FLOW-JA-FACE ON UNIT   1023 AT TIME STEP     19, STRESS PERIOD      1
 UBDSV06 SAVING              WEL IN MODEL MODEL1D_CYCLEF   PACKAGE MODEL1D_CYCLEF  CONNECTED TO MODEL MODEL1D_CYCLEF   PACKAGE WEL1             ON UNIT   1023 AT TIME STEP     19, STRESS PERIOD      1
 UBDSV06 SAVING              CHD IN MODEL MODEL1D_CYCLEF   PACKAGE MODEL1D_CYCLEF  CONNECTED TO MODEL MODEL1D_CYCLEF   PACKAGE CHD1             ON UNIT   1023 AT TIME STEP     19, STRESS PERIOD      1

 HEAD WILL BE SAVED ON UNIT 1024 AT END OF TIME STEP   19, STRESS PERIOD    1

end timestep


start timestep kper="1" kstp="20" mode="normal"

 UBDSV1 SAVING     FLOW-JA-FACE ON UNIT   1023 AT TIME STEP     20, STRESS PERIOD      1
 UBDSV06 SAVING              WEL IN MODEL MODEL1D_CYCLEF   PACKAGE MODEL1D_CYCLEF  CONNECTED TO MODEL MODEL1D_CYCLEF   PACKAGE WEL1             ON UNIT   1023 AT TIME STEP     20, STRESS PERIOD      1
 UBDSV06 SAVING              CHD IN MODEL MODEL1D_CYCLEF   PACKAGE MODEL1D_CYCLEF  CONNECTED TO MODEL MODEL1D_CYCLEF   PACKAGE CHD1             ON UNIT   1023 AT TIME STEP     20, STRESS PERIOD      1

 HEAD WILL BE SAVED ON UNIT 1024 AT END OF TIME STEP   20, STRESS PERIOD    1

end timestep


start timestep kper="1" kstp="21" mode="normal"

 UBDSV1 SAVING     FLOW-JA-FACE ON UNIT   1023 AT TIME STEP     21, STRESS PERIOD      1
 UBDSV06 SAVING              WEL IN MODEL MODEL1D_CYCLEF   PACKAGE MODEL1D_CYCLEF  CONNECTED TO MODEL MODEL1D_CYCLEF   PACKAGE WEL1             ON UNIT   1023 AT TIME STEP     21, STRESS PERIOD      1
 UBDSV06 SAVING              CHD IN MODEL MODEL1D_CYCLEF   PACKAGE MODEL1D_CYCLEF  CONNECTED TO MODEL MODEL1D_CYCLEF   PACKAGE CHD1             ON UNIT   1023 AT TIME STEP     21, STRESS PERIOD      1

 HEAD WILL BE SAVED ON UNIT 1024 AT END OF TIME STEP   21, STRESS PERIOD    1

end timestep


start timestep kper="1" kstp="22" mode="normal"

 UBDSV1 SAVING     FLOW-JA-FACE ON UNIT   1023 AT TIME STEP     22, STRESS PERIOD      1
 UBDSV06 SAVING              WEL IN MODEL MODEL1D_CYCLEF   PACKAGE MODEL1D_CYCLEF  CONNECTED TO MODEL MODEL1D_CYCLEF   PACKAGE WEL1             ON UNIT   1023 AT TIME STEP     22, STRESS PERIOD      1
 UBDSV06 SAVING              CHD IN MODEL MODEL1D_CYCLEF   PACKAGE MODEL1D_CYCLEF  CONNECTED TO MODEL MODEL1D_CYCLEF   PACKAGE CHD1             ON UNIT   1023 AT TIME STEP     22, STRESS PERIOD      1

 HEAD WILL BE SAVED ON UNIT 1024 AT END OF TIME STEP   22, STRESS PERIOD    1

end timestep


start timestep kper="1" kstp="23" mode="normal"

 UBDSV1 SAVING     FLOW-JA-FACE ON UNIT   1023 AT TIME STEP     23, STRESS PERIOD      1
 UBDSV06 SAVING              WEL IN MODEL MODEL1D_CYCLEF   PACKAGE MODEL1D_CYCLEF  CONNECTED TO MODEL MODEL1D_CYCLEF   PACKAGE WEL1             ON UNIT   1023 AT TIME STEP     23, STRESS PERIOD      1
 UBDSV06 SAVING              CHD IN MODEL MODEL1D_CYCLEF   PACKAGE MODEL1D_CYCLEF  CONNECTED TO MODEL MODEL1D_CYCLEF   PACKAGE CHD1             ON UNIT   1023 AT TIME STEP     23, STRESS PERIOD      1

 HEAD WILL BE SAVED ON UNIT 1024 AT END OF TIME STEP   23, STRESS PERIOD    1

end timestep


start timestep kper="1" kstp="24" mode="normal"

 UBDSV1 SAVING     FLOW-JA-FACE ON UNIT   1023 AT TIME STEP     24, STRESS PERIOD      1
 UBDSV06 SAVING              WEL IN MODEL MODEL1D_CYCLEF   PACKAGE MODEL1D_CYCLEF  CONNECTED TO MODEL MODEL1D_CYCLEF   PACKAGE WEL1             ON UNIT   1023 AT TIME STEP     24, STRESS PERIOD      1
 UBDSV06 SAVING              CHD IN MODEL MODEL1D_CYCLEF   PACKAGE MODEL1D_CYCLEF  CONNECTED TO MODEL MODEL1D_CYCLEF   PACKAGE CHD1             ON UNIT   1023 AT TIME STEP     24, STRESS PERIOD      1

 HEAD WILL BE SAVED ON UNIT 1024 AT END OF TIME STEP   24, STRESS PERIOD    1

end timestep


start timestep kper="1" kstp="25" mode="normal"

 UBDSV1 SAVING     FLOW-JA-FACE ON UNIT   1023 AT TIME STEP     25, STRESS PERIOD      1
 UBDSV06 SAVING              WEL IN MODEL MODEL1D_CYCLEF   PACKAGE MODEL1D_CYCLEF  CONNECTED TO MODEL MODEL1D_CYCLEF   PACKAGE WEL1             ON UNIT   1023 AT TIME STEP     25, STRESS PERIOD      1
 UBDSV06 SAVING              CHD IN MODEL MODEL1D_CYCLEF   PACKAGE MODEL1D_CYCLEF  CONNECTED TO MODEL MODEL1D_CYCLEF   PACKAGE CHD1             ON UNIT   1023 AT TIME STEP     25, STRESS PERIOD      1

 HEAD WILL BE SAVED ON UNIT 1024 AT END OF TIME STEP   25, STRESS PERIOD    1

end timestep


start timestep kper="1" kstp="26" mode="normal"

 UBDSV1 SAVING     FLOW-JA-FACE ON UNIT   1023 AT TIME STEP     26, STRESS PERIOD      1
 UBDSV06 SAVING              WEL IN MODEL MODEL1D_CYCLEF   PACKAGE MODEL1D_CYCLEF  CONNECTED TO MODEL MODEL1D_CYCLEF   PACKAGE WEL1             ON UNIT   1023 AT TIME STEP     26, STRESS PERIOD      1
 UBDSV06 SAVING              CHD IN MODEL MODEL1D_CYCLEF   PACKAGE MODEL1D_CYCLEF  CONNECTED TO MODEL MODEL1D_CYCLEF   PACKAGE CHD1             ON UNIT   1023 AT TIME STEP     26, STRESS PERIOD      1

 HEAD WILL BE SAVED ON UNIT 1024 AT END OF TIME STEP   26, STRESS PERIOD    1

end timestep


start timestep kper="1" kstp="27" mode="normal"

 UBDSV1 SAVING     FLOW-JA-FACE ON UNIT   1023 AT TIME STEP     27, STRESS PERIOD      1
 UBDSV06 SAVING              WEL IN MODEL MODEL1D_CYCLEF   PACKAGE MODEL1D_CYCLEF  CONNECTED TO MODEL MODEL1D_CYCLEF   PACKAGE WEL1             ON UNIT   1023 AT TIME STEP     27, STRESS PERIOD      1
 UBDSV06 SAVING              CHD IN MODEL MODEL1D_CYCLEF   PACKAGE MODEL1D_CYCLEF  CONNECTED TO MODEL MODEL1D_CYCLEF   PACKAGE CHD1             ON UNIT   1023 AT TIME STEP     27, STRESS PERIOD      1

 HEAD WILL BE SAVED ON UNIT 1024 AT END OF TIME STEP   27, STRESS PERIOD    1

end timestep


start timestep kper="1" kstp="28" mode="normal"

 UBDSV1 SAVING     FLOW-JA-FACE ON UNIT   1023 AT TIME STEP     28, STRESS PERIOD      1
 UBDSV06 SAVING              WEL IN MODEL MODEL1D_CYCLEF   PACKAGE MODEL1D_CYCLEF  CONNECTED TO MODEL MODEL1D_CYCLEF   PACKAGE WEL1             ON UNIT   1023 AT TIME STEP     28, STRESS PERIOD      1
 UBDSV06 SAVING              CHD IN MODEL MODEL1D_CYCLEF   PACKAGE MODEL1D_CYCLEF  CONNECTED TO MODEL MODEL1D_CYCLEF   PACKAGE CHD1             ON UNIT   1023 AT TIME STEP     28, STRESS PERIOD      1

 HEAD WILL BE SAVED ON UNIT 1024 AT END OF TIME STEP   28, STRESS PERIOD    1

end timestep


start timestep kper="1" kstp="29" mode="normal"

 UBDSV1 SAVING     FLOW-JA-FACE ON UNIT   1023 AT TIME STEP     29, STRESS PERIOD      1
 UBDSV06 SAVING              WEL IN MODEL MODEL1D_CYCLEF   PACKAGE MODEL1D_CYCLEF  CONNECTED TO MODEL MODEL1D_CYCLEF   PACKAGE WEL1             ON UNIT   1023 AT TIME STEP     29, STRESS PERIOD      1
 UBDSV06 SAVING              CHD IN MODEL MODEL1D_CYCLEF   PACKAGE MODEL1D_CYCLEF  CONNECTED TO MODEL MODEL1D_CYCLEF   PACKAGE CHD1             ON UNIT   1023 AT TIME STEP     29, STRESS PERIOD      1

 HEAD WILL BE SAVED ON UNIT 1024 AT END OF TIME STEP   29, STRESS PERIOD    1

end timestep


start timestep kper="1" kstp="30" mode="normal"

 UBDSV1 SAVING     FLOW-JA-FACE ON UNIT   1023 AT TIME STEP     30, STRESS PERIOD      1
 UBDSV06 SAVING              WEL IN MODEL MODEL1D_CYCLEF   PACKAGE MODEL1D_CYCLEF  CONNECTED TO MODEL MODEL1D_CYCLEF   PACKAGE WEL1             ON UNIT   1023 AT TIME STEP     30, STRESS PERIOD      1
 UBDSV06 SAVING              CHD IN MODEL MODEL1D_CYCLEF   PACKAGE MODEL1D_CYCLEF  CONNECTED TO MODEL MODEL1D_CYCLEF   PACKAGE CHD1             ON UNIT   1023 AT TIME STEP     30, STRESS PERIOD      1

 HEAD WILL BE SAVED ON UNIT 1024 AT END OF TIME STEP   30, STRESS PERIOD    1

end timestep


start timestep kper="1" kstp="31" mode="normal"

 UBDSV1 SAVING     FLOW-JA-FACE ON UNIT   1023 AT TIME STEP     31, STRESS PERIOD      1
 UBDSV06 SAVING              WEL IN MODEL MODEL1D_CYCLEF   PACKAGE MODEL1D_CYCLEF  CONNECTED TO MODEL MODEL1D_CYCLEF   PACKAGE WEL1             ON UNIT   1023 AT TIME STEP     31, STRESS PERIOD      1
 UBDSV06 SAVING              CHD IN MODEL MODEL1D_CYCLEF   PACKAGE MODEL1D_CYCLEF  CONNECTED TO MODEL MODEL1D_CYCLEF   PACKAGE CHD1             ON UNIT   1023 AT TIME STEP     31, STRESS PERIOD      1

 HEAD WILL BE SAVED ON UNIT 1024 AT END OF TIME STEP   31, STRESS PERIOD    1

end timestep


start timestep kper="1" kstp="32" mode="normal"

 UBDSV1 SAVING     FLOW-JA-FACE ON UNIT   1023 AT TIME STEP     32, STRESS PERIOD      1
 UBDSV06 SAVING              WEL IN MODEL MODEL1D_CYCLEF   PACKAGE MODEL1D_CYCLEF  CONNECTED TO MODEL MODEL1D_CYCLEF   PACKAGE WEL1             ON UNIT   1023 AT TIME STEP     32, STRESS PERIOD      1
 UBDSV06 SAVING              CHD IN MODEL MODEL1D_CYCLEF   PACKAGE MODEL1D_CYCLEF  CONNECTED TO MODEL MODEL1D_CYCLEF   PACKAGE CHD1             ON UNIT   1023 AT TIME STEP     32, STRESS PERIOD      1

 HEAD WILL BE SAVED ON UNIT 1024 AT END OF TIME STEP   32, STRESS PERIOD    1

end timestep


start timestep kper="1" kstp="33" mode="normal"

 UBDSV1 SAVING     FLOW-JA-FACE ON UNIT   1023 AT TIME STEP     33, STRESS PERIOD      1
 UBDSV06 SAVING              WEL IN MODEL MODEL1D_CYCLEF   PACKAGE MODEL1D_CYCLEF  CONNECTED TO MODEL MODEL1D_CYCLEF   PACKAGE WEL1             ON UNIT   1023 AT TIME STEP     33, STRESS PERIOD      1
 UBDSV06 SAVING              CHD IN MODEL MODEL1D_CYCLEF   PACKAGE MODEL1D_CYCLEF  CONNECTED TO MODEL MODEL1D_CYCLEF   PACKAGE CHD1             ON UNIT   1023 AT TIME STEP     33, STRESS PERIOD      1

 HEAD WILL BE SAVED ON UNIT 1024 AT END OF TIME STEP   33, STRESS PERIOD    1

end timestep


start timestep kper="1" kstp="34" mode="normal"

 UBDSV1 SAVING     FLOW-JA-FACE ON UNIT   1023 AT TIME STEP     34, STRESS PERIOD      1
 UBDSV06 SAVING              WEL IN MODEL MODEL1D_CYCLEF   PACKAGE MODEL1D_CYCLEF  CONNECTED TO MODEL MODEL1D_CYCLEF   PACKAGE WEL1             ON UNIT   1023 AT TIME STEP     34, STRESS PERIOD      1
 UBDSV06 SAVING              CHD IN MODEL MODEL1D_CYCLEF   PACKAGE MODEL1D_CYCLEF  CONNECTED TO MODEL MODEL1D_CYCLEF   PACKAGE CHD1             ON UNIT   1023 AT TIME STEP     34, STRESS PERIOD      1

 HEAD WILL BE SAVED ON UNIT 1024 AT END OF TIME STEP   34, STRESS PERIOD    1

end timestep


start timestep kper="1" kstp="35" mode="normal"

 UBDSV1 SAVING     FLOW-JA-FACE ON UNIT   1023 AT TIME STEP     35, STRESS PERIOD      1
 UBDSV06 SAVING              WEL IN MODEL MODEL1D_CYCLEF   PACKAGE MODEL1D_CYCLEF  CONNECTED TO MODEL MODEL1D_CYCLEF   PACKAGE WEL1             ON UNIT   1023 AT TIME STEP     35, STRESS PERIOD      1
 UBDSV06 SAVING              CHD IN MODEL MODEL1D_CYCLEF   PACKAGE MODEL1D_CYCLEF  CONNECTED TO MODEL MODEL1D_CYCLEF   PACKAGE CHD1             ON UNIT   1023 AT TIME STEP     35, STRESS PERIOD      1

 HEAD WILL BE SAVED ON UNIT 1024 AT END OF TIME STEP   35, STRESS PERIOD    1

end timestep


start timestep kper="1" kstp="36" mode="normal"

 UBDSV1 SAVING     FLOW-JA-FACE ON UNIT   1023 AT TIME STEP     36, STRESS PERIOD      1
 UBDSV06 SAVING              WEL IN MODEL MODEL1D_CYCLEF   PACKAGE MODEL1D_CYCLEF  CONNECTED TO MODEL MODEL1D_CYCLEF   PACKAGE WEL1             ON UNIT   1023 AT TIME STEP     36, STRESS PERIOD      1
 UBDSV06 SAVING              CHD IN MODEL MODEL1D_CYCLEF   PACKAGE MODEL1D_CYCLEF  CONNECTED TO MODEL MODEL1D_CYCLEF   PACKAGE CHD1             ON UNIT   1023 AT TIME STEP     36, STRESS PERIOD      1

 HEAD WILL BE SAVED ON UNIT 1024 AT END OF TIME STEP   36, STRESS PERIOD    1

end timestep


start timestep kper="1" kstp="37" mode="normal"

 UBDSV1 SAVING     FLOW-JA-FACE ON UNIT   1023 AT TIME STEP     37, STRESS PERIOD      1
 UBDSV06 SAVING              WEL IN MODEL MODEL1D_CYCLEF   PACKAGE MODEL1D_CYCLEF  CONNECTED TO MODEL MODEL1D_CYCLEF   PACKAGE WEL1             ON UNIT   1023 AT TIME STEP     37, STRESS PERIOD      1
 UBDSV06 SAVING              CHD IN MODEL MODEL1D_CYCLEF   PACKAGE MODEL1D_CYCLEF  CONNECTED TO MODEL MODEL1D_CYCLEF   PACKAGE CHD1             ON UNIT   1023 AT TIME STEP     37, STRESS PERIOD      1

 HEAD WILL BE SAVED ON UNIT 1024 AT END OF TIME STEP   37, STRESS PERIOD    1

end timestep


start timestep kper="1" kstp="38" mode="normal"

 UBDSV1 SAVING     FLOW-JA-FACE ON UNIT   1023 AT TIME STEP     38, STRESS PERIOD      1
 UBDSV06 SAVING              WEL IN MODEL MODEL1D_CYCLEF   PACKAGE MODEL1D_CYCLEF  CONNECTED TO MODEL MODEL1D_CYCLEF   PACKAGE WEL1             ON UNIT   1023 AT TIME STEP     38, STRESS PERIOD      1
 UBDSV06 SAVING              CHD IN MODEL MODEL1D_CYCLEF   PACKAGE MODEL1D_CYCLEF  CONNECTED TO MODEL MODEL1D_CYCLEF   PACKAGE CHD1             ON UNIT   1023 AT TIME STEP     38, STRESS PERIOD      1

 HEAD WILL BE SAVED ON UNIT 1024 AT END OF TIME STEP   38, STRESS PERIOD    1

end timestep


start timestep kper="1" kstp="39" mode="normal"

 UBDSV1 SAVING     FLOW-JA-FACE ON UNIT   1023 AT TIME STEP     39, STRESS PERIOD      1
 UBDSV06 SAVING              WEL IN MODEL MODEL1D_CYCLEF   PACKAGE MODEL1D_CYCLEF  CONNECTED TO MODEL MODEL1D_CYCLEF   PACKAGE WEL1             ON UNIT   1023 AT TIME STEP     39, STRESS PERIOD      1
 UBDSV06 SAVING              CHD IN MODEL MODEL1D_CYCLEF   PACKAGE MODEL1D_CYCLEF  CONNECTED TO MODEL MODEL1D_CYCLEF   PACKAGE CHD1             ON UNIT   1023 AT TIME STEP     39, STRESS PERIOD      1

 HEAD WILL BE SAVED ON UNIT 1024 AT END OF TIME STEP   39, STRESS PERIOD    1

end timestep


start timestep kper="1" kstp="40" mode="normal"

 UBDSV1 SAVING     FLOW-JA-FACE ON UNIT   1023 AT TIME STEP     40, STRESS PERIOD      1
 UBDSV06 SAVING              WEL IN MODEL MODEL1D_CYCLEF   PACKAGE MODEL1D_CYCLEF  CONNECTED TO MODEL MODEL1D_CYCLEF   PACKAGE WEL1             ON UNIT   1023 AT TIME STEP     40, STRESS PERIOD      1
 UBDSV06 SAVING              CHD IN MODEL MODEL1D_CYCLEF   PACKAGE MODEL1D_CYCLEF  CONNECTED TO MODEL MODEL1D_CYCLEF   PACKAGE CHD1             ON UNIT   1023 AT TIME STEP     40, STRESS PERIOD      1

 HEAD WILL BE SAVED ON UNIT 1024 AT END OF TIME STEP   40, STRESS PERIOD    1

end timestep


start timestep kper="1" kstp="41" mode="normal"

 UBDSV1 SAVING     FLOW-JA-FACE ON UNIT   1023 AT TIME STEP     41, STRESS PERIOD      1
 UBDSV06 SAVING              WEL IN MODEL MODEL1D_CYCLEF   PACKAGE MODEL1D_CYCLEF  CONNECTED TO MODEL MODEL1D_CYCLEF   PACKAGE WEL1             ON UNIT   1023 AT TIME STEP     41, STRESS PERIOD      1
 UBDSV06 SAVING              CHD IN MODEL MODEL1D_CYCLEF   PACKAGE MODEL1D_CYCLEF  CONNECTED TO MODEL MODEL1D_CYCLEF   PACKAGE CHD1             ON UNIT   1023 AT TIME STEP     41, STRESS PERIOD      1

 HEAD WILL BE SAVED ON UNIT 1024 AT END OF TIME STEP   41, STRESS PERIOD    1

end timestep


start timestep kper="1" kstp="42" mode="normal"

 UBDSV1 SAVING     FLOW-JA-FACE ON UNIT   1023 AT TIME STEP     42, STRESS PERIOD      1
 UBDSV06 SAVING              WEL IN MODEL MODEL1D_CYCLEF   PACKAGE MODEL1D_CYCLEF  CONNECTED TO MODEL MODEL1D_CYCLEF   PACKAGE WEL1             ON UNIT   1023 AT TIME STEP     42, STRESS PERIOD      1
 UBDSV06 SAVING              CHD IN MODEL MODEL1D_CYCLEF   PACKAGE MODEL1D_CYCLEF  CONNECTED TO MODEL MODEL1D_CYCLEF   PACKAGE CHD1             ON UNIT   1023 AT TIME STEP     42, STRESS PERIOD      1

 HEAD WILL BE SAVED ON UNIT 1024 AT END OF TIME STEP   42, STRESS PERIOD    1

end timestep


start timestep kper="1" kstp="43" mode="normal"

 UBDSV1 SAVING     FLOW-JA-FACE ON UNIT   1023 AT TIME STEP     43, STRESS PERIOD      1
 UBDSV06 SAVING              WEL IN MODEL MODEL1D_CYCLEF   PACKAGE MODEL1D_CYCLEF  CONNECTED TO MODEL MODEL1D_CYCLEF   PACKAGE WEL1             ON UNIT   1023 AT TIME STEP     43, STRESS PERIOD      1
 UBDSV06 SAVING              CHD IN MODEL MODEL1D_CYCLEF   PACKAGE MODEL1D_CYCLEF  CONNECTED TO MODEL MODEL1D_CYCLEF   PACKAGE CHD1             ON UNIT   1023 AT TIME STEP     43, STRESS PERIOD      1

 HEAD WILL BE SAVED ON UNIT 1024 AT END OF TIME STEP   43, STRESS PERIOD    1

end timestep


start timestep kper="1" kstp="44" mode="normal"

 UBDSV1 SAVING     FLOW-JA-FACE ON UNIT   1023 AT TIME STEP     44, STRESS PERIOD      1
 UBDSV06 SAVING              WEL IN MODEL MODEL1D_CYCLEF   PACKAGE MODEL1D_CYCLEF  CONNECTED TO MODEL MODEL1D_CYCLEF   PACKAGE WEL1             ON UNIT   1023 AT TIME STEP     44, STRESS PERIOD      1
 UBDSV06 SAVING              CHD IN MODEL MODEL1D_CYCLEF   PACKAGE MODEL1D_CYCLEF  CONNECTED TO MODEL MODEL1D_CYCLEF   PACKAGE CHD1             ON UNIT   1023 AT TIME STEP     44, STRESS PERIOD      1

 HEAD WILL BE SAVED ON UNIT 1024 AT END OF TIME STEP   44, STRESS PERIOD    1

end timestep


start timestep kper="1" kstp="45" mode="normal"

 UBDSV1 SAVING     FLOW-JA-FACE ON UNIT   1023 AT TIME STEP     45, STRESS PERIOD      1
 UBDSV06 SAVING              WEL IN MODEL MODEL1D_CYCLEF   PACKAGE MODEL1D_CYCLEF  CONNECTED TO MODEL MODEL1D_CYCLEF   PACKAGE WEL1             ON UNIT   1023 AT TIME STEP     45, STRESS PERIOD      1
 UBDSV06 SAVING              CHD IN MODEL MODEL1D_CYCLEF   PACKAGE MODEL1D_CYCLEF  CONNECTED TO MODEL MODEL1D_CYCLEF   PACKAGE CHD1             ON UNIT   1023 AT TIME STEP     45, STRESS PERIOD      1

 HEAD WILL BE SAVED ON UNIT 1024 AT END OF TIME STEP   45, STRESS PERIOD    1

end timestep


start timestep kper="1" kstp="46" mode="normal"

 UBDSV1 SAVING     FLOW-JA-FACE ON UNIT   1023 AT TIME STEP     46, STRESS PERIOD      1
 UBDSV06 SAVING              WEL IN MODEL MODEL1D_CYCLEF   PACKAGE MODEL1D_CYCLEF  CONNECTED TO MODEL MODEL1D_CYCLEF   PACKAGE WEL1             ON UNIT   1023 AT TIME STEP     46, STRESS PERIOD      1
 UBDSV06 SAVING              CHD IN MODEL MODEL1D_CYCLEF   PACKAGE MODEL1D_CYCLEF  CONNECTED TO MODEL MODEL1D_CYCLEF   PACKAGE CHD1             ON UNIT   1023 AT TIME STEP     46, STRESS PERIOD      1

 HEAD WILL BE SAVED ON UNIT 1024 AT END OF TIME STEP   46, STRESS PERIOD    1

end timestep


start timestep kper="1" kstp="47" mode="normal"

 UBDSV1 SAVING     FLOW-JA-FACE ON UNIT   1023 AT TIME STEP     47, STRESS PERIOD      1
 UBDSV06 SAVING              WEL IN MODEL MODEL1D_CYCLEF   PACKAGE MODEL1D_CYCLEF  CONNECTED TO MODEL MODEL1D_CYCLEF   PACKAGE WEL1             ON UNIT   1023 AT TIME STEP     47, STRESS PERIOD      1
 UBDSV06 SAVING              CHD IN MODEL MODEL1D_CYCLEF   PACKAGE MODEL1D_CYCLEF  CONNECTED TO MODEL MODEL1D_CYCLEF   PACKAGE CHD1             ON UNIT   1023 AT TIME STEP     47, STRESS PERIOD      1

 HEAD WILL BE SAVED ON UNIT 1024 AT END OF TIME STEP   47, STRESS PERIOD    1

end timestep


start timestep kper="1" kstp="48" mode="normal"

 UBDSV1 SAVING     FLOW-JA-FACE ON UNIT   1023 AT TIME STEP     48, STRESS PERIOD      1
 UBDSV06 SAVING              WEL IN MODEL MODEL1D_CYCLEF   PACKAGE MODEL1D_CYCLEF  CONNECTED TO MODEL MODEL1D_CYCLEF   PACKAGE WEL1             ON UNIT   1023 AT TIME STEP     48, STRESS PERIOD      1
 UBDSV06 SAVING              CHD IN MODEL MODEL1D_CYCLEF   PACKAGE MODEL1D_CYCLEF  CONNECTED TO MODEL MODEL1D_CYCLEF   PACKAGE CHD1             ON UNIT   1023 AT TIME STEP     48, STRESS PERIOD      1

 HEAD WILL BE SAVED ON UNIT 1024 AT END OF TIME STEP   48, STRESS PERIOD    1

end timestep


start timestep kper="1" kstp="49" mode="normal"

 UBDSV1 SAVING     FLOW-JA-FACE ON UNIT   1023 AT TIME STEP     49, STRESS PERIOD      1
 UBDSV06 SAVING              WEL IN MODEL MODEL1D_CYCLEF   PACKAGE MODEL1D_CYCLEF  CONNECTED TO MODEL MODEL1D_CYCLEF   PACKAGE WEL1             ON UNIT   1023 AT TIME STEP     49, STRESS PERIOD      1
 UBDSV06 SAVING              CHD IN MODEL MODEL1D_CYCLEF   PACKAGE MODEL1D_CYCLEF  CONNECTED TO MODEL MODEL1D_CYCLEF   PACKAGE CHD1             ON UNIT   1023 AT TIME STEP     49, STRESS PERIOD      1

 HEAD WILL BE SAVED ON UNIT 1024 AT END OF TIME STEP   49, STRESS PERIOD    1

end timestep


start timestep kper="1" kstp="50" mode="normal"

 UBDSV1 SAVING     FLOW-JA-FACE ON UNIT   1023 AT TIME STEP     50, STRESS PERIOD      1
 UBDSV06 SAVING              WEL IN MODEL MODEL1D_CYCLEF   PACKAGE MODEL1D_CYCLEF  CONNECTED TO MODEL MODEL1D_CYCLEF   PACKAGE WEL1             ON UNIT   1023 AT TIME STEP     50, STRESS PERIOD      1
 UBDSV06 SAVING              CHD IN MODEL MODEL1D_CYCLEF   PACKAGE MODEL1D_CYCLEF  CONNECTED TO MODEL MODEL1D_CYCLEF   PACKAGE CHD1             ON UNIT   1023 AT TIME STEP     50, STRESS PERIOD      1

 HEAD WILL BE SAVED ON UNIT 1024 AT END OF TIME STEP   50, STRESS PERIOD    1

end timestep


start timestep kper="1" kstp="51" mode="normal"

 UBDSV1 SAVING     FLOW-JA-FACE ON UNIT   1023 AT TIME STEP     51, STRESS PERIOD      1
 UBDSV06 SAVING              WEL IN MODEL MODEL1D_CYCLEF   PACKAGE MODEL1D_CYCLEF  CONNECTED TO MODEL MODEL1D_CYCLEF   PACKAGE WEL1             ON UNIT   1023 AT TIME STEP     51, STRESS PERIOD      1
 UBDSV06 SAVING              CHD IN MODEL MODEL1D_CYCLEF   PACKAGE MODEL1D_CYCLEF  CONNECTED TO MODEL MODEL1D_CYCLEF   PACKAGE CHD1             ON UNIT   1023 AT TIME STEP     51, STRESS PERIOD      1

 HEAD WILL BE SAVED ON UNIT 1024 AT END OF TIME STEP   51, STRESS PERIOD    1

end timestep


start timestep kper="1" kstp="52" mode="normal"

 UBDSV1 SAVING     FLOW-JA-FACE ON UNIT   1023 AT TIME STEP     52, STRESS PERIOD      1
 UBDSV06 SAVING              WEL IN MODEL MODEL1D_CYCLEF   PACKAGE MODEL1D_CYCLEF  CONNECTED TO MODEL MODEL1D_CYCLEF   PACKAGE WEL1             ON UNIT   1023 AT TIME STEP     52, STRESS PERIOD      1
 UBDSV06 SAVING              CHD IN MODEL MODEL1D_CYCLEF   PACKAGE MODEL1D_CYCLEF  CONNECTED TO MODEL MODEL1D_CYCLEF   PACKAGE CHD1             ON UNIT   1023 AT TIME STEP     52, STRESS PERIOD      1

 HEAD WILL BE SAVED ON UNIT 1024 AT END OF TIME STEP   52, STRESS PERIOD    1

end timestep


start timestep kper="1" kstp="53" mode="normal"

 UBDSV1 SAVING     FLOW-JA-FACE ON UNIT   1023 AT TIME STEP     53, STRESS PERIOD      1
 UBDSV06 SAVING              WEL IN MODEL MODEL1D_CYCLEF   PACKAGE MODEL1D_CYCLEF  CONNECTED TO MODEL MODEL1D_CYCLEF   PACKAGE WEL1             ON UNIT   1023 AT TIME STEP     53, STRESS PERIOD      1
 UBDSV06 SAVING              CHD IN MODEL MODEL1D_CYCLEF   PACKAGE MODEL1D_CYCLEF  CONNECTED TO MODEL MODEL1D_CYCLEF   PACKAGE CHD1             ON UNIT   1023 AT TIME STEP     53, STRESS PERIOD      1

 HEAD WILL BE SAVED ON UNIT 1024 AT END OF TIME STEP   53, STRESS PERIOD    1

end timestep


start timestep kper="1" kstp="54" mode="normal"

 UBDSV1 SAVING     FLOW-JA-FACE ON UNIT   1023 AT TIME STEP     54, STRESS PERIOD      1
 UBDSV06 SAVING              WEL IN MODEL MODEL1D_CYCLEF   PACKAGE MODEL1D_CYCLEF  CONNECTED TO MODEL MODEL1D_CYCLEF   PACKAGE WEL1             ON UNIT   1023 AT TIME STEP     54, STRESS PERIOD      1
 UBDSV06 SAVING              CHD IN MODEL MODEL1D_CYCLEF   PACKAGE MODEL1D_CYCLEF  CONNECTED TO MODEL MODEL1D_CYCLEF   PACKAGE CHD1             ON UNIT   1023 AT TIME STEP     54, STRESS PERIOD      1

 HEAD WILL BE SAVED ON UNIT 1024 AT END OF TIME STEP   54, STRESS PERIOD    1

end timestep


start timestep kper="1" kstp="55" mode="normal"

 UBDSV1 SAVING     FLOW-JA-FACE ON UNIT   1023 AT TIME STEP     55, STRESS PERIOD      1
 UBDSV06 SAVING              WEL IN MODEL MODEL1D_CYCLEF   PACKAGE MODEL1D_CYCLEF  CONNECTED TO MODEL MODEL1D_CYCLEF   PACKAGE WEL1             ON UNIT   1023 AT TIME STEP     55, STRESS PERIOD      1
 UBDSV06 SAVING              CHD IN MODEL MODEL1D_CYCLEF   PACKAGE MODEL1D_CYCLEF  CONNECTED TO MODEL MODEL1D_CYCLEF   PACKAGE CHD1             ON UNIT   1023 AT TIME STEP     55, STRESS PERIOD      1

 HEAD WILL BE SAVED ON UNIT 1024 AT END OF TIME STEP   55, STRESS PERIOD    1

end timestep


start timestep kper="1" kstp="56" mode="normal"

 UBDSV1 SAVING     FLOW-JA-FACE ON UNIT   1023 AT TIME STEP     56, STRESS PERIOD      1
 UBDSV06 SAVING              WEL IN MODEL MODEL1D_CYCLEF   PACKAGE MODEL1D_CYCLEF  CONNECTED TO MODEL MODEL1D_CYCLEF   PACKAGE WEL1             ON UNIT   1023 AT TIME STEP     56, STRESS PERIOD      1
 UBDSV06 SAVING              CHD IN MODEL MODEL1D_CYCLEF   PACKAGE MODEL1D_CYCLEF  CONNECTED TO MODEL MODEL1D_CYCLEF   PACKAGE CHD1             ON UNIT   1023 AT TIME STEP     56, STRESS PERIOD      1

 HEAD WILL BE SAVED ON UNIT 1024 AT END OF TIME STEP   56, STRESS PERIOD    1

end timestep


start timestep kper="1" kstp="57" mode="normal"

 UBDSV1 SAVING     FLOW-JA-FACE ON UNIT   1023 AT TIME STEP     57, STRESS PERIOD      1
 UBDSV06 SAVING              WEL IN MODEL MODEL1D_CYCLEF   PACKAGE MODEL1D_CYCLEF  CONNECTED TO MODEL MODEL1D_CYCLEF   PACKAGE WEL1             ON UNIT   1023 AT TIME STEP     57, STRESS PERIOD      1
 UBDSV06 SAVING              CHD IN MODEL MODEL1D_CYCLEF   PACKAGE MODEL1D_CYCLEF  CONNECTED TO MODEL MODEL1D_CYCLEF   PACKAGE CHD1             ON UNIT   1023 AT TIME STEP     57, STRESS PERIOD      1

 HEAD WILL BE SAVED ON UNIT 1024 AT END OF TIME STEP   57, STRESS PERIOD    1

end timestep


start timestep kper="1" kstp="58" mode="normal"

 UBDSV1 SAVING     FLOW-JA-FACE ON UNIT   1023 AT TIME STEP     58, STRESS PERIOD      1
 UBDSV06 SAVING              WEL IN MODEL MODEL1D_CYCLEF   PACKAGE MODEL1D_CYCLEF  CONNECTED TO MODEL MODEL1D_CYCLEF   PACKAGE WEL1             ON UNIT   1023 AT TIME STEP     58, STRESS PERIOD      1
 UBDSV06 SAVING              CHD IN MODEL MODEL1D_CYCLEF   PACKAGE MODEL1D_CYCLEF  CONNECTED TO MODEL MODEL1D_CYCLEF   PACKAGE CHD1             ON UNIT   1023 AT TIME STEP     58, STRESS PERIOD      1

 HEAD WILL BE SAVED ON UNIT 1024 AT END OF TIME STEP   58, STRESS PERIOD    1

end timestep


start timestep kper="1" kstp="59" mode="normal"

 UBDSV1 SAVING     FLOW-JA-FACE ON UNIT   1023 AT TIME STEP     59, STRESS PERIOD      1
 UBDSV06 SAVING              WEL IN MODEL MODEL1D_CYCLEF   PACKAGE MODEL1D_CYCLEF  CONNECTED TO MODEL MODEL1D_CYCLEF   PACKAGE WEL1             ON UNIT   1023 AT TIME STEP     59, STRESS PERIOD      1
 UBDSV06 SAVING              CHD IN MODEL MODEL1D_CYCLEF   PACKAGE MODEL1D_CYCLEF  CONNECTED TO MODEL MODEL1D_CYCLEF   PACKAGE CHD1             ON UNIT   1023 AT TIME STEP     59, STRESS PERIOD      1

 HEAD WILL BE SAVED ON UNIT 1024 AT END OF TIME STEP   59, STRESS PERIOD    1

end timestep


start timestep kper="1" kstp="60" mode="normal"

 UBDSV1 SAVING     FLOW-JA-FACE ON UNIT   1023 AT TIME STEP     60, STRESS PERIOD      1
 UBDSV06 SAVING              WEL IN MODEL MODEL1D_CYCLEF   PACKAGE MODEL1D_CYCLEF  CONNECTED TO MODEL MODEL1D_CYCLEF   PACKAGE WEL1             ON UNIT   1023 AT TIME STEP     60, STRESS PERIOD      1
 UBDSV06 SAVING              CHD IN MODEL MODEL1D_CYCLEF   PACKAGE MODEL1D_CYCLEF  CONNECTED TO MODEL MODEL1D_CYCLEF   PACKAGE CHD1             ON UNIT   1023 AT TIME STEP     60, STRESS PERIOD      1

 HEAD WILL BE SAVED ON UNIT 1024 AT END OF TIME STEP   60, STRESS PERIOD    1

end timestep


start timestep kper="1" kstp="61" mode="normal"

 UBDSV1 SAVING     FLOW-JA-FACE ON UNIT   1023 AT TIME STEP     61, STRESS PERIOD      1
 UBDSV06 SAVING              WEL IN MODEL MODEL1D_CYCLEF   PACKAGE MODEL1D_CYCLEF  CONNECTED TO MODEL MODEL1D_CYCLEF   PACKAGE WEL1             ON UNIT   1023 AT TIME STEP     61, STRESS PERIOD      1
 UBDSV06 SAVING              CHD IN MODEL MODEL1D_CYCLEF   PACKAGE MODEL1D_CYCLEF  CONNECTED TO MODEL MODEL1D_CYCLEF   PACKAGE CHD1             ON UNIT   1023 AT TIME STEP     61, STRESS PERIOD      1

 HEAD WILL BE SAVED ON UNIT 1024 AT END OF TIME STEP   61, STRESS PERIOD    1

end timestep


start timestep kper="1" kstp="62" mode="normal"

 UBDSV1 SAVING     FLOW-JA-FACE ON UNIT   1023 AT TIME STEP     62, STRESS PERIOD      1
 UBDSV06 SAVING              WEL IN MODEL MODEL1D_CYCLEF   PACKAGE MODEL1D_CYCLEF  CONNECTED TO MODEL MODEL1D_CYCLEF   PACKAGE WEL1             ON UNIT   1023 AT TIME STEP     62, STRESS PERIOD      1
 UBDSV06 SAVING              CHD IN MODEL MODEL1D_CYCLEF   PACKAGE MODEL1D_CYCLEF  CONNECTED TO MODEL MODEL1D_CYCLEF   PACKAGE CHD1             ON UNIT   1023 AT TIME STEP     62, STRESS PERIOD      1

 HEAD WILL BE SAVED ON UNIT 1024 AT END OF TIME STEP   62, STRESS PERIOD    1

end timestep


start timestep kper="1" kstp="63" mode="normal"

 UBDSV1 SAVING     FLOW-JA-FACE ON UNIT   1023 AT TIME STEP     63, STRESS PERIOD      1
 UBDSV06 SAVING              WEL IN MODEL MODEL1D_CYCLEF   PACKAGE MODEL1D_CYCLEF  CONNECTED TO MODEL MODEL1D_CYCLEF   PACKAGE WEL1             ON UNIT   1023 AT TIME STEP     63, STRESS PERIOD      1
 UBDSV06 SAVING              CHD IN MODEL MODEL1D_CYCLEF   PACKAGE MODEL1D_CYCLEF  CONNECTED TO MODEL MODEL1D_CYCLEF   PACKAGE CHD1             ON UNIT   1023 AT TIME STEP     63, STRESS PERIOD      1

 HEAD WILL BE SAVED ON UNIT 1024 AT END OF TIME STEP   63, STRESS PERIOD    1

end timestep


start timestep kper="1" kstp="64" mode="normal"

 UBDSV1 SAVING     FLOW-JA-FACE ON UNIT   1023 AT TIME STEP     64, STRESS PERIOD      1
 UBDSV06 SAVING              WEL IN MODEL MODEL1D_CYCLEF   PACKAGE MODEL1D_CYCLEF  CONNECTED TO MODEL MODEL1D_CYCLEF   PACKAGE WEL1             ON UNIT   1023 AT TIME STEP     64, STRESS PERIOD      1
 UBDSV06 SAVING              CHD IN MODEL MODEL1D_CYCLEF   PACKAGE MODEL1D_CYCLEF  CONNECTED TO MODEL MODEL1D_CYCLEF   PACKAGE CHD1             ON UNIT   1023 AT TIME STEP     64, STRESS PERIOD      1

 HEAD WILL BE SAVED ON UNIT 1024 AT END OF TIME STEP   64, STRESS PERIOD    1

end timestep


start timestep kper="1" kstp="65" mode="normal"

 UBDSV1 SAVING     FLOW-JA-FACE ON UNIT   1023 AT TIME STEP     65, STRESS PERIOD      1
 UBDSV06 SAVING              WEL IN MODEL MODEL1D_CYCLEF   PACKAGE MODEL1D_CYCLEF  CONNECTED TO MODEL MODEL1D_CYCLEF   PACKAGE WEL1             ON UNIT   1023 AT TIME STEP     65, STRESS PERIOD      1
 UBDSV06 SAVING              CHD IN MODEL MODEL1D_CYCLEF   PACKAGE MODEL1D_CYCLEF  CONNECTED TO MODEL MODEL1D_CYCLEF   PACKAGE CHD1             ON UNIT   1023 AT TIME STEP     65, STRESS PERIOD      1

 HEAD WILL BE SAVED ON UNIT 1024 AT END OF TIME STEP   65, STRESS PERIOD    1

end timestep


start timestep kper="1" kstp="66" mode="normal"

 UBDSV1 SAVING     FLOW-JA-FACE ON UNIT   1023 AT TIME STEP     66, STRESS PERIOD      1
 UBDSV06 SAVING              WEL IN MODEL MODEL1D_CYCLEF   PACKAGE MODEL1D_CYCLEF  CONNECTED TO MODEL MODEL1D_CYCLEF   PACKAGE WEL1             ON UNIT   1023 AT TIME STEP     66, STRESS PERIOD      1
 UBDSV06 SAVING              CHD IN MODEL MODEL1D_CYCLEF   PACKAGE MODEL1D_CYCLEF  CONNECTED TO MODEL MODEL1D_CYCLEF   PACKAGE CHD1             ON UNIT   1023 AT TIME STEP     66, STRESS PERIOD      1

 HEAD WILL BE SAVED ON UNIT 1024 AT END OF TIME STEP   66, STRESS PERIOD    1

end timestep


start timestep kper="1" kstp="67" mode="normal"

 UBDSV1 SAVING     FLOW-JA-FACE ON UNIT   1023 AT TIME STEP     67, STRESS PERIOD      1
 UBDSV06 SAVING              WEL IN MODEL MODEL1D_CYCLEF   PACKAGE MODEL1D_CYCLEF  CONNECTED TO MODEL MODEL1D_CYCLEF   PACKAGE WEL1             ON UNIT   1023 AT TIME STEP     67, STRESS PERIOD      1
 UBDSV06 SAVING              CHD IN MODEL MODEL1D_CYCLEF   PACKAGE MODEL1D_CYCLEF  CONNECTED TO MODEL MODEL1D_CYCLEF   PACKAGE CHD1             ON UNIT   1023 AT TIME STEP     67, STRESS PERIOD      1

 HEAD WILL BE SAVED ON UNIT 1024 AT END OF TIME STEP   67, STRESS PERIOD    1

end timestep


start timestep kper="1" kstp="68" mode="normal"

 UBDSV1 SAVING     FLOW-JA-FACE ON UNIT   1023 AT TIME STEP     68, STRESS PERIOD      1
 UBDSV06 SAVING              WEL IN MODEL MODEL1D_CYCLEF   PACKAGE MODEL1D_CYCLEF  CONNECTED TO MODEL MODEL1D_CYCLEF   PACKAGE WEL1             ON UNIT   1023 AT TIME STEP     68, STRESS PERIOD      1
 UBDSV06 SAVING              CHD IN MODEL MODEL1D_CYCLEF   PACKAGE MODEL1D_CYCLEF  CONNECTED TO MODEL MODEL1D_CYCLEF   PACKAGE CHD1             ON UNIT   1023 AT TIME STEP     68, STRESS PERIOD      1

 HEAD WILL BE SAVED ON UNIT 1024 AT END OF TIME STEP   68, STRESS PERIOD    1

end timestep


start timestep kper="1" kstp="69" mode="normal"

 UBDSV1 SAVING     FLOW-JA-FACE ON UNIT   1023 AT TIME STEP     69, STRESS PERIOD      1
 UBDSV06 SAVING              WEL IN MODEL MODEL1D_CYCLEF   PACKAGE MODEL1D_CYCLEF  CONNECTED TO MODEL MODEL1D_CYCLEF   PACKAGE WEL1             ON UNIT   1023 AT TIME STEP     69, STRESS PERIOD      1
 UBDSV06 SAVING              CHD IN MODEL MODEL1D_CYCLEF   PACKAGE MODEL1D_CYCLEF  CONNECTED TO MODEL MODEL1D_CYCLEF   PACKAGE CHD1             ON UNIT   1023 AT TIME STEP     69, STRESS PERIOD      1

 HEAD WILL BE SAVED ON UNIT 1024 AT END OF TIME STEP   69, STRESS PERIOD    1

end timestep


start timestep kper="1" kstp="70" mode="normal"

 UBDSV1 SAVING     FLOW-JA-FACE ON UNIT   1023 AT TIME STEP     70, STRESS PERIOD      1
 UBDSV06 SAVING              WEL IN MODEL MODEL1D_CYCLEF   PACKAGE MODEL1D_CYCLEF  CONNECTED TO MODEL MODEL1D_CYCLEF   PACKAGE WEL1             ON UNIT   1023 AT TIME STEP     70, STRESS PERIOD      1
 UBDSV06 SAVING              CHD IN MODEL MODEL1D_CYCLEF   PACKAGE MODEL1D_CYCLEF  CONNECTED TO MODEL MODEL1D_CYCLEF   PACKAGE CHD1             ON UNIT   1023 AT TIME STEP     70, STRESS PERIOD      1

 HEAD WILL BE SAVED ON UNIT 1024 AT END OF TIME STEP   70, STRESS PERIOD    1

end timestep


start timestep kper="1" kstp="71" mode="normal"

 UBDSV1 SAVING     FLOW-JA-FACE ON UNIT   1023 AT TIME STEP     71, STRESS PERIOD      1
 UBDSV06 SAVING              WEL IN MODEL MODEL1D_CYCLEF   PACKAGE MODEL1D_CYCLEF  CONNECTED TO MODEL MODEL1D_CYCLEF   PACKAGE WEL1             ON UNIT   1023 AT TIME STEP     71, STRESS PERIOD      1
 UBDSV06 SAVING              CHD IN MODEL MODEL1D_CYCLEF   PACKAGE MODEL1D_CYCLEF  CONNECTED TO MODEL MODEL1D_CYCLEF   PACKAGE CHD1             ON UNIT   1023 AT TIME STEP     71, STRESS PERIOD      1

 HEAD WILL BE SAVED ON UNIT 1024 AT END OF TIME STEP   71, STRESS PERIOD    1

end timestep


start timestep kper="1" kstp="72" mode="normal"

 UBDSV1 SAVING     FLOW-JA-FACE ON UNIT   1023 AT TIME STEP     72, STRESS PERIOD      1
 UBDSV06 SAVING              WEL IN MODEL MODEL1D_CYCLEF   PACKAGE MODEL1D_CYCLEF  CONNECTED TO MODEL MODEL1D_CYCLEF   PACKAGE WEL1             ON UNIT   1023 AT TIME STEP     72, STRESS PERIOD      1
 UBDSV06 SAVING              CHD IN MODEL MODEL1D_CYCLEF   PACKAGE MODEL1D_CYCLEF  CONNECTED TO MODEL MODEL1D_CYCLEF   PACKAGE CHD1             ON UNIT   1023 AT TIME STEP     72, STRESS PERIOD      1

 HEAD WILL BE SAVED ON UNIT 1024 AT END OF TIME STEP   72, STRESS PERIOD    1

end timestep


start timestep kper="1" kstp="73" mode="normal"

 UBDSV1 SAVING     FLOW-JA-FACE ON UNIT   1023 AT TIME STEP     73, STRESS PERIOD      1
 UBDSV06 SAVING              WEL IN MODEL MODEL1D_CYCLEF   PACKAGE MODEL1D_CYCLEF  CONNECTED TO MODEL MODEL1D_CYCLEF   PACKAGE WEL1             ON UNIT   1023 AT TIME STEP     73, STRESS PERIOD      1
 UBDSV06 SAVING              CHD IN MODEL MODEL1D_CYCLEF   PACKAGE MODEL1D_CYCLEF  CONNECTED TO MODEL MODEL1D_CYCLEF   PACKAGE CHD1             ON UNIT   1023 AT TIME STEP     73, STRESS PERIOD      1

 HEAD WILL BE SAVED ON UNIT 1024 AT END OF TIME STEP   73, STRESS PERIOD    1

end timestep


start timestep kper="1" kstp="74" mode="normal"

 UBDSV1 SAVING     FLOW-JA-FACE ON UNIT   1023 AT TIME STEP     74, STRESS PERIOD      1
 UBDSV06 SAVING              WEL IN MODEL MODEL1D_CYCLEF   PACKAGE MODEL1D_CYCLEF  CONNECTED TO MODEL MODEL1D_CYCLEF   PACKAGE WEL1             ON UNIT   1023 AT TIME STEP     74, STRESS PERIOD      1
 UBDSV06 SAVING              CHD IN MODEL MODEL1D_CYCLEF   PACKAGE MODEL1D_CYCLEF  CONNECTED TO MODEL MODEL1D_CYCLEF   PACKAGE CHD1             ON UNIT   1023 AT TIME STEP     74, STRESS PERIOD      1

 HEAD WILL BE SAVED ON UNIT 1024 AT END OF TIME STEP   74, STRESS PERIOD    1

end timestep


start timestep kper="1" kstp="75" mode="normal"

 UBDSV1 SAVING     FLOW-JA-FACE ON UNIT   1023 AT TIME STEP     75, STRESS PERIOD      1
 UBDSV06 SAVING              WEL IN MODEL MODEL1D_CYCLEF   PACKAGE MODEL1D_CYCLEF  CONNECTED TO MODEL MODEL1D_CYCLEF   PACKAGE WEL1             ON UNIT   1023 AT TIME STEP     75, STRESS PERIOD      1
 UBDSV06 SAVING              CHD IN MODEL MODEL1D_CYCLEF   PACKAGE MODEL1D_CYCLEF  CONNECTED TO MODEL MODEL1D_CYCLEF   PACKAGE CHD1             ON UNIT   1023 AT TIME STEP     75, STRESS PERIOD      1

 HEAD WILL BE SAVED ON UNIT 1024 AT END OF TIME STEP   75, STRESS PERIOD    1

end timestep


start timestep kper="1" kstp="76" mode="normal"

 UBDSV1 SAVING     FLOW-JA-FACE ON UNIT   1023 AT TIME STEP     76, STRESS PERIOD      1
 UBDSV06 SAVING              WEL IN MODEL MODEL1D_CYCLEF   PACKAGE MODEL1D_CYCLEF  CONNECTED TO MODEL MODEL1D_CYCLEF   PACKAGE WEL1             ON UNIT   1023 AT TIME STEP     76, STRESS PERIOD      1
 UBDSV06 SAVING              CHD IN MODEL MODEL1D_CYCLEF   PACKAGE MODEL1D_CYCLEF  CONNECTED TO MODEL MODEL1D_CYCLEF   PACKAGE CHD1             ON UNIT   1023 AT TIME STEP     76, STRESS PERIOD      1

 HEAD WILL BE SAVED ON UNIT 1024 AT END OF TIME STEP   76, STRESS PERIOD    1

end timestep


start timestep kper="1" kstp="77" mode="normal"

 UBDSV1 SAVING     FLOW-JA-FACE ON UNIT   1023 AT TIME STEP     77, STRESS PERIOD      1
 UBDSV06 SAVING              WEL IN MODEL MODEL1D_CYCLEF   PACKAGE MODEL1D_CYCLEF  CONNECTED TO MODEL MODEL1D_CYCLEF   PACKAGE WEL1             ON UNIT   1023 AT TIME STEP     77, STRESS PERIOD      1
 UBDSV06 SAVING              CHD IN MODEL MODEL1D_CYCLEF   PACKAGE MODEL1D_CYCLEF  CONNECTED TO MODEL MODEL1D_CYCLEF   PACKAGE CHD1             ON UNIT   1023 AT TIME STEP     77, STRESS PERIOD      1

 HEAD WILL BE SAVED ON UNIT 1024 AT END OF TIME STEP   77, STRESS PERIOD    1

end timestep


start timestep kper="1" kstp="78" mode="normal"

 UBDSV1 SAVING     FLOW-JA-FACE ON UNIT   1023 AT TIME STEP     78, STRESS PERIOD      1
 UBDSV06 SAVING              WEL IN MODEL MODEL1D_CYCLEF   PACKAGE MODEL1D_CYCLEF  CONNECTED TO MODEL MODEL1D_CYCLEF   PACKAGE WEL1             ON UNIT   1023 AT TIME STEP     78, STRESS PERIOD      1
 UBDSV06 SAVING              CHD IN MODEL MODEL1D_CYCLEF   PACKAGE MODEL1D_CYCLEF  CONNECTED TO MODEL MODEL1D_CYCLEF   PACKAGE CHD1             ON UNIT   1023 AT TIME STEP     78, STRESS PERIOD      1

 HEAD WILL BE SAVED ON UNIT 1024 AT END OF TIME STEP   78, STRESS PERIOD    1

end timestep


start timestep kper="1" kstp="79" mode="normal"

 UBDSV1 SAVING     FLOW-JA-FACE ON UNIT   1023 AT TIME STEP     79, STRESS PERIOD      1
 UBDSV06 SAVING              WEL IN MODEL MODEL1D_CYCLEF   PACKAGE MODEL1D_CYCLEF  CONNECTED TO MODEL MODEL1D_CYCLEF   PACKAGE WEL1             ON UNIT   1023 AT TIME STEP     79, STRESS PERIOD      1
 UBDSV06 SAVING              CHD IN MODEL MODEL1D_CYCLEF   PACKAGE MODEL1D_CYCLEF  CONNECTED TO MODEL MODEL1D_CYCLEF   PACKAGE CHD1             ON UNIT   1023 AT TIME STEP     79, STRESS PERIOD      1

 HEAD WILL BE SAVED ON UNIT 1024 AT END OF TIME STEP   79, STRESS PERIOD    1

end timestep


start timestep kper="1" kstp="80" mode="normal"

 UBDSV1 SAVING     FLOW-JA-FACE ON UNIT   1023 AT TIME STEP     80, STRESS PERIOD      1
 UBDSV06 SAVING              WEL IN MODEL MODEL1D_CYCLEF   PACKAGE MODEL1D_CYCLEF  CONNECTED TO MODEL MODEL1D_CYCLEF   PACKAGE WEL1             ON UNIT   1023 AT TIME STEP     80, STRESS PERIOD      1
 UBDSV06 SAVING              CHD IN MODEL MODEL1D_CYCLEF   PACKAGE MODEL1D_CYCLEF  CONNECTED TO MODEL MODEL1D_CYCLEF   PACKAGE CHD1             ON UNIT   1023 AT TIME STEP     80, STRESS PERIOD      1

 HEAD WILL BE SAVED ON UNIT 1024 AT END OF TIME STEP   80, STRESS PERIOD    1

end timestep


start timestep kper="1" kstp="81" mode="normal"

 UBDSV1 SAVING     FLOW-JA-FACE ON UNIT   1023 AT TIME STEP     81, STRESS PERIOD      1
 UBDSV06 SAVING              WEL IN MODEL MODEL1D_CYCLEF   PACKAGE MODEL1D_CYCLEF  CONNECTED TO MODEL MODEL1D_CYCLEF   PACKAGE WEL1             ON UNIT   1023 AT TIME STEP     81, STRESS PERIOD      1
 UBDSV06 SAVING              CHD IN MODEL MODEL1D_CYCLEF   PACKAGE MODEL1D_CYCLEF  CONNECTED TO MODEL MODEL1D_CYCLEF   PACKAGE CHD1             ON UNIT   1023 AT TIME STEP     81, STRESS PERIOD      1

 HEAD WILL BE SAVED ON UNIT 1024 AT END OF TIME STEP   81, STRESS PERIOD    1

end timestep


start timestep kper="1" kstp="82" mode="normal"

 UBDSV1 SAVING     FLOW-JA-FACE ON UNIT   1023 AT TIME STEP     82, STRESS PERIOD      1
 UBDSV06 SAVING              WEL IN MODEL MODEL1D_CYCLEF   PACKAGE MODEL1D_CYCLEF  CONNECTED TO MODEL MODEL1D_CYCLEF   PACKAGE WEL1             ON UNIT   1023 AT TIME STEP     82, STRESS PERIOD      1
 UBDSV06 SAVING              CHD IN MODEL MODEL1D_CYCLEF   PACKAGE MODEL1D_CYCLEF  CONNECTED TO MODEL MODEL1D_CYCLEF   PACKAGE CHD1             ON UNIT   1023 AT TIME STEP     82, STRESS PERIOD      1

 HEAD WILL BE SAVED ON UNIT 1024 AT END OF TIME STEP   82, STRESS PERIOD    1

end timestep


start timestep kper="1" kstp="83" mode="normal"

 UBDSV1 SAVING     FLOW-JA-FACE ON UNIT   1023 AT TIME STEP     83, STRESS PERIOD      1
 UBDSV06 SAVING              WEL IN MODEL MODEL1D_CYCLEF   PACKAGE MODEL1D_CYCLEF  CONNECTED TO MODEL MODEL1D_CYCLEF   PACKAGE WEL1             ON UNIT   1023 AT TIME STEP     83, STRESS PERIOD      1
 UBDSV06 SAVING              CHD IN MODEL MODEL1D_CYCLEF   PACKAGE MODEL1D_CYCLEF  CONNECTED TO MODEL MODEL1D_CYCLEF   PACKAGE CHD1             ON UNIT   1023 AT TIME STEP     83, STRESS PERIOD      1

 HEAD WILL BE SAVED ON UNIT 1024 AT END OF TIME STEP   83, STRESS PERIOD    1

end timestep


start timestep kper="1" kstp="84" mode="normal"

 UBDSV1 SAVING     FLOW-JA-FACE ON UNIT   1023 AT TIME STEP     84, STRESS PERIOD      1
 UBDSV06 SAVING              WEL IN MODEL MODEL1D_CYCLEF   PACKAGE MODEL1D_CYCLEF  CONNECTED TO MODEL MODEL1D_CYCLEF   PACKAGE WEL1             ON UNIT   1023 AT TIME STEP     84, STRESS PERIOD      1
 UBDSV06 SAVING              CHD IN MODEL MODEL1D_CYCLEF   PACKAGE MODEL1D_CYCLEF  CONNECTED TO MODEL MODEL1D_CYCLEF   PACKAGE CHD1             ON UNIT   1023 AT TIME STEP     84, STRESS PERIOD      1

 HEAD WILL BE SAVED ON UNIT 1024 AT END OF TIME STEP   84, STRESS PERIOD    1

end timestep


start timestep kper="1" kstp="85" mode="normal"

 UBDSV1 SAVING     FLOW-JA-FACE ON UNIT   1023 AT TIME STEP     85, STRESS PERIOD      1
 UBDSV06 SAVING              WEL IN MODEL MODEL1D_CYCLEF   PACKAGE MODEL1D_CYCLEF  CONNECTED TO MODEL MODEL1D_CYCLEF   PACKAGE WEL1             ON UNIT   1023 AT TIME STEP     85, STRESS PERIOD      1
 UBDSV06 SAVING              CHD IN MODEL MODEL1D_CYCLEF   PACKAGE MODEL1D_CYCLEF  CONNECTED TO MODEL MODEL1D_CYCLEF   PACKAGE CHD1             ON UNIT   1023 AT TIME STEP     85, STRESS PERIOD      1

 HEAD WILL BE SAVED ON UNIT 1024 AT END OF TIME STEP   85, STRESS PERIOD    1

end timestep


start timestep kper="1" kstp="86" mode="normal"

 UBDSV1 SAVING     FLOW-JA-FACE ON UNIT   1023 AT TIME STEP     86, STRESS PERIOD      1
 UBDSV06 SAVING              WEL IN MODEL MODEL1D_CYCLEF   PACKAGE MODEL1D_CYCLEF  CONNECTED TO MODEL MODEL1D_CYCLEF   PACKAGE WEL1             ON UNIT   1023 AT TIME STEP     86, STRESS PERIOD      1
 UBDSV06 SAVING              CHD IN MODEL MODEL1D_CYCLEF   PACKAGE MODEL1D_CYCLEF  CONNECTED TO MODEL MODEL1D_CYCLEF   PACKAGE CHD1             ON UNIT   1023 AT TIME STEP     86, STRESS PERIOD      1

 HEAD WILL BE SAVED ON UNIT 1024 AT END OF TIME STEP   86, STRESS PERIOD    1

end timestep


start timestep kper="1" kstp="87" mode="normal"

 UBDSV1 SAVING     FLOW-JA-FACE ON UNIT   1023 AT TIME STEP     87, STRESS PERIOD      1
 UBDSV06 SAVING              WEL IN MODEL MODEL1D_CYCLEF   PACKAGE MODEL1D_CYCLEF  CONNECTED TO MODEL MODEL1D_CYCLEF   PACKAGE WEL1             ON UNIT   1023 AT TIME STEP     87, STRESS PERIOD      1
 UBDSV06 SAVING              CHD IN MODEL MODEL1D_CYCLEF   PACKAGE MODEL1D_CYCLEF  CONNECTED TO MODEL MODEL1D_CYCLEF   PACKAGE CHD1             ON UNIT   1023 AT TIME STEP     87, STRESS PERIOD      1

 HEAD WILL BE SAVED ON UNIT 1024 AT END OF TIME STEP   87, STRESS PERIOD    1

end timestep


start timestep kper="1" kstp="88" mode="normal"

 UBDSV1 SAVING     FLOW-JA-FACE ON UNIT   1023 AT TIME STEP     88, STRESS PERIOD      1
 UBDSV06 SAVING              WEL IN MODEL MODEL1D_CYCLEF   PACKAGE MODEL1D_CYCLEF  CONNECTED TO MODEL MODEL1D_CYCLEF   PACKAGE WEL1             ON UNIT   1023 AT TIME STEP     88, STRESS PERIOD      1
 UBDSV06 SAVING              CHD IN MODEL MODEL1D_CYCLEF   PACKAGE MODEL1D_CYCLEF  CONNECTED TO MODEL MODEL1D_CYCLEF   PACKAGE CHD1             ON UNIT   1023 AT TIME STEP     88, STRESS PERIOD      1

 HEAD WILL BE SAVED ON UNIT 1024 AT END OF TIME STEP   88, STRESS PERIOD    1

end timestep


start timestep kper="1" kstp="89" mode="normal"

 UBDSV1 SAVING     FLOW-JA-FACE ON UNIT   1023 AT TIME STEP     89, STRESS PERIOD      1
 UBDSV06 SAVING              WEL IN MODEL MODEL1D_CYCLEF   PACKAGE MODEL1D_CYCLEF  CONNECTED TO MODEL MODEL1D_CYCLEF   PACKAGE WEL1             ON UNIT   1023 AT TIME STEP     89, STRESS PERIOD      1
 UBDSV06 SAVING              CHD IN MODEL MODEL1D_CYCLEF   PACKAGE MODEL1D_CYCLEF  CONNECTED TO MODEL MODEL1D_CYCLEF   PACKAGE CHD1             ON UNIT   1023 AT TIME STEP     89, STRESS PERIOD      1

 HEAD WILL BE SAVED ON UNIT 1024 AT END OF TIME STEP   89, STRESS PERIOD    1

end timestep


start timestep kper="1" kstp="90" mode="normal"

 UBDSV1 SAVING     FLOW-JA-FACE ON UNIT   1023 AT TIME STEP     90, STRESS PERIOD      1
 UBDSV06 SAVING              WEL IN MODEL MODEL1D_CYCLEF   PACKAGE MODEL1D_CYCLEF  CONNECTED TO MODEL MODEL1D_CYCLEF   PACKAGE WEL1             ON UNIT   1023 AT TIME STEP     90, STRESS PERIOD      1
 UBDSV06 SAVING              CHD IN MODEL MODEL1D_CYCLEF   PACKAGE MODEL1D_CYCLEF  CONNECTED TO MODEL MODEL1D_CYCLEF   PACKAGE CHD1             ON UNIT   1023 AT TIME STEP     90, STRESS PERIOD      1

 HEAD WILL BE SAVED ON UNIT 1024 AT END OF TIME STEP   90, STRESS PERIOD    1

end timestep


start timestep kper="1" kstp="91" mode="normal"

 UBDSV1 SAVING     FLOW-JA-FACE ON UNIT   1023 AT TIME STEP     91, STRESS PERIOD      1
 UBDSV06 SAVING              WEL IN MODEL MODEL1D_CYCLEF   PACKAGE MODEL1D_CYCLEF  CONNECTED TO MODEL MODEL1D_CYCLEF   PACKAGE WEL1             ON UNIT   1023 AT TIME STEP     91, STRESS PERIOD      1
 UBDSV06 SAVING              CHD IN MODEL MODEL1D_CYCLEF   PACKAGE MODEL1D_CYCLEF  CONNECTED TO MODEL MODEL1D_CYCLEF   PACKAGE CHD1             ON UNIT   1023 AT TIME STEP     91, STRESS PERIOD      1

 HEAD WILL BE SAVED ON UNIT 1024 AT END OF TIME STEP   91, STRESS PERIOD    1

end timestep


start timestep kper="1" kstp="92" mode="normal"

 UBDSV1 SAVING     FLOW-JA-FACE ON UNIT   1023 AT TIME STEP     92, STRESS PERIOD      1
 UBDSV06 SAVING              WEL IN MODEL MODEL1D_CYCLEF   PACKAGE MODEL1D_CYCLEF  CONNECTED TO MODEL MODEL1D_CYCLEF   PACKAGE WEL1             ON UNIT   1023 AT TIME STEP     92, STRESS PERIOD      1
 UBDSV06 SAVING              CHD IN MODEL MODEL1D_CYCLEF   PACKAGE MODEL1D_CYCLEF  CONNECTED TO MODEL MODEL1D_CYCLEF   PACKAGE CHD1             ON UNIT   1023 AT TIME STEP     92, STRESS PERIOD      1

 HEAD WILL BE SAVED ON UNIT 1024 AT END OF TIME STEP   92, STRESS PERIOD    1

end timestep


start timestep kper="1" kstp="93" mode="normal"

 UBDSV1 SAVING     FLOW-JA-FACE ON UNIT   1023 AT TIME STEP     93, STRESS PERIOD      1
 UBDSV06 SAVING              WEL IN MODEL MODEL1D_CYCLEF   PACKAGE MODEL1D_CYCLEF  CONNECTED TO MODEL MODEL1D_CYCLEF   PACKAGE WEL1             ON UNIT   1023 AT TIME STEP     93, STRESS PERIOD      1
 UBDSV06 SAVING              CHD IN MODEL MODEL1D_CYCLEF   PACKAGE MODEL1D_CYCLEF  CONNECTED TO MODEL MODEL1D_CYCLEF   PACKAGE CHD1             ON UNIT   1023 AT TIME STEP     93, STRESS PERIOD      1

 HEAD WILL BE SAVED ON UNIT 1024 AT END OF TIME STEP   93, STRESS PERIOD    1

end timestep


start timestep kper="1" kstp="94" mode="normal"

 UBDSV1 SAVING     FLOW-JA-FACE ON UNIT   1023 AT TIME STEP     94, STRESS PERIOD      1
 UBDSV06 SAVING              WEL IN MODEL MODEL1D_CYCLEF   PACKAGE MODEL1D_CYCLEF  CONNECTED TO MODEL MODEL1D_CYCLEF   PACKAGE WEL1             ON UNIT   1023 AT TIME STEP     94, STRESS PERIOD      1
 UBDSV06 SAVING              CHD IN MODEL MODEL1D_CYCLEF   PACKAGE MODEL1D_CYCLEF  CONNECTED TO MODEL MODEL1D_CYCLEF   PACKAGE CHD1             ON UNIT   1023 AT TIME STEP     94, STRESS PERIOD      1

 HEAD WILL BE SAVED ON UNIT 1024 AT END OF TIME STEP   94, STRESS PERIOD    1

end timestep


start timestep kper="1" kstp="95" mode="normal"

 UBDSV1 SAVING     FLOW-JA-FACE ON UNIT   1023 AT TIME STEP     95, STRESS PERIOD      1
 UBDSV06 SAVING              WEL IN MODEL MODEL1D_CYCLEF   PACKAGE MODEL1D_CYCLEF  CONNECTED TO MODEL MODEL1D_CYCLEF   PACKAGE WEL1             ON UNIT   1023 AT TIME STEP     95, STRESS PERIOD      1
 UBDSV06 SAVING              CHD IN MODEL MODEL1D_CYCLEF   PACKAGE MODEL1D_CYCLEF  CONNECTED TO MODEL MODEL1D_CYCLEF   PACKAGE CHD1             ON UNIT   1023 AT TIME STEP     95, STRESS PERIOD      1

 HEAD WILL BE SAVED ON UNIT 1024 AT END OF TIME STEP   95, STRESS PERIOD    1

end timestep


start timestep kper="1" kstp="96" mode="normal"

 UBDSV1 SAVING     FLOW-JA-FACE ON UNIT   1023 AT TIME STEP     96, STRESS PERIOD      1
 UBDSV06 SAVING              WEL IN MODEL MODEL1D_CYCLEF   PACKAGE MODEL1D_CYCLEF  CONNECTED TO MODEL MODEL1D_CYCLEF   PACKAGE WEL1             ON UNIT   1023 AT TIME STEP     96, STRESS PERIOD      1
 UBDSV06 SAVING              CHD IN MODEL MODEL1D_CYCLEF   PACKAGE MODEL1D_CYCLEF  CONNECTED TO MODEL MODEL1D_CYCLEF   PACKAGE CHD1             ON UNIT   1023 AT TIME STEP     96, STRESS PERIOD      1

 HEAD WILL BE SAVED ON UNIT 1024 AT END OF TIME STEP   96, STRESS PERIOD    1

end timestep


start timestep kper="1" kstp="97" mode="normal"

 UBDSV1 SAVING     FLOW-JA-FACE ON UNIT   1023 AT TIME STEP     97, STRESS PERIOD      1
 UBDSV06 SAVING              WEL IN MODEL MODEL1D_CYCLEF   PACKAGE MODEL1D_CYCLEF  CONNECTED TO MODEL MODEL1D_CYCLEF   PACKAGE WEL1             ON UNIT   1023 AT TIME STEP     97, STRESS PERIOD      1
 UBDSV06 SAVING              CHD IN MODEL MODEL1D_CYCLEF   PACKAGE MODEL1D_CYCLEF  CONNECTED TO MODEL MODEL1D_CYCLEF   PACKAGE CHD1             ON UNIT   1023 AT TIME STEP     97, STRESS PERIOD      1

 HEAD WILL BE SAVED ON UNIT 1024 AT END OF TIME STEP   97, STRESS PERIOD    1

end timestep


start timestep kper="1" kstp="98" mode="normal"

 UBDSV1 SAVING     FLOW-JA-FACE ON UNIT   1023 AT TIME STEP     98, STRESS PERIOD      1
 UBDSV06 SAVING              WEL IN MODEL MODEL1D_CYCLEF   PACKAGE MODEL1D_CYCLEF  CONNECTED TO MODEL MODEL1D_CYCLEF   PACKAGE WEL1             ON UNIT   1023 AT TIME STEP     98, STRESS PERIOD      1
 UBDSV06 SAVING              CHD IN MODEL MODEL1D_CYCLEF   PACKAGE MODEL1D_CYCLEF  CONNECTED TO MODEL MODEL1D_CYCLEF   PACKAGE CHD1             ON UNIT   1023 AT TIME STEP     98, STRESS PERIOD      1

 HEAD WILL BE SAVED ON UNIT 1024 AT END OF TIME STEP   98, STRESS PERIOD    1

end timestep


start timestep kper="1" kstp="99" mode="normal"

 UBDSV1 SAVING     FLOW-JA-FACE ON UNIT   1023 AT TIME STEP     99, STRESS PERIOD      1
 UBDSV06 SAVING              WEL IN MODEL MODEL1D_CYCLEF   PACKAGE MODEL1D_CYCLEF  CONNECTED TO MODEL MODEL1D_CYCLEF   PACKAGE WEL1             ON UNIT   1023 AT TIME STEP     99, STRESS PERIOD      1
 UBDSV06 SAVING              CHD IN MODEL MODEL1D_CYCLEF   PACKAGE MODEL1D_CYCLEF  CONNECTED TO MODEL MODEL1D_CYCLEF   PACKAGE CHD1             ON UNIT   1023 AT TIME STEP     99, STRESS PERIOD      1

 HEAD WILL BE SAVED ON UNIT 1024 AT END OF TIME STEP   99, STRESS PERIOD    1

end timestep


start timestep kper="1" kstp="100" mode="normal"

 UBDSV1 SAVING     FLOW-JA-FACE ON UNIT   1023 AT TIME STEP    100, STRESS PERIOD      1
 UBDSV06 SAVING              WEL IN MODEL MODEL1D_CYCLEF   PACKAGE MODEL1D_CYCLEF  CONNECTED TO MODEL MODEL1D_CYCLEF   PACKAGE WEL1             ON UNIT   1023 AT TIME STEP    100, STRESS PERIOD      1
 UBDSV06 SAVING              CHD IN MODEL MODEL1D_CYCLEF   PACKAGE MODEL1D_CYCLEF  CONNECTED TO MODEL MODEL1D_CYCLEF   PACKAGE CHD1             ON UNIT   1023 AT TIME STEP    100, STRESS PERIOD      1

 HEAD WILL BE SAVED ON UNIT 1024 AT END OF TIME STEP  100, STRESS PERIOD    1

end timestep


start timestep kper="1" kstp="101" mode="normal"

 UBDSV1 SAVING     FLOW-JA-FACE ON UNIT   1023 AT TIME STEP    101, STRESS PERIOD      1
 UBDSV06 SAVING              WEL IN MODEL MODEL1D_CYCLEF   PACKAGE MODEL1D_CYCLEF  CONNECTED TO MODEL MODEL1D_CYCLEF   PACKAGE WEL1             ON UNIT   1023 AT TIME STEP    101, STRESS PERIOD      1
 UBDSV06 SAVING              CHD IN MODEL MODEL1D_CYCLEF   PACKAGE MODEL1D_CYCLEF  CONNECTED TO MODEL MODEL1D_CYCLEF   PACKAGE CHD1             ON UNIT   1023 AT TIME STEP    101, STRESS PERIOD      1

 HEAD WILL BE SAVED ON UNIT 1024 AT END OF TIME STEP  101, STRESS PERIOD    1

end timestep


start timestep kper="1" kstp="102" mode="normal"

 UBDSV1 SAVING     FLOW-JA-FACE ON UNIT   1023 AT TIME STEP    102, STRESS PERIOD      1
 UBDSV06 SAVING              WEL IN MODEL MODEL1D_CYCLEF   PACKAGE MODEL1D_CYCLEF  CONNECTED TO MODEL MODEL1D_CYCLEF   PACKAGE WEL1             ON UNIT   1023 AT TIME STEP    102, STRESS PERIOD      1
 UBDSV06 SAVING              CHD IN MODEL MODEL1D_CYCLEF   PACKAGE MODEL1D_CYCLEF  CONNECTED TO MODEL MODEL1D_CYCLEF   PACKAGE CHD1             ON UNIT   1023 AT TIME STEP    102, STRESS PERIOD      1

 HEAD WILL BE SAVED ON UNIT 1024 AT END OF TIME STEP  102, STRESS PERIOD    1

end timestep


start timestep kper="1" kstp="103" mode="normal"

 UBDSV1 SAVING     FLOW-JA-FACE ON UNIT   1023 AT TIME STEP    103, STRESS PERIOD      1
 UBDSV06 SAVING              WEL IN MODEL MODEL1D_CYCLEF   PACKAGE MODEL1D_CYCLEF  CONNECTED TO MODEL MODEL1D_CYCLEF   PACKAGE WEL1             ON UNIT   1023 AT TIME STEP    103, STRESS PERIOD      1
 UBDSV06 SAVING              CHD IN MODEL MODEL1D_CYCLEF   PACKAGE MODEL1D_CYCLEF  CONNECTED TO MODEL MODEL1D_CYCLEF   PACKAGE CHD1             ON UNIT   1023 AT TIME STEP    103, STRESS PERIOD      1

 HEAD WILL BE SAVED ON UNIT 1024 AT END OF TIME STEP  103, STRESS PERIOD    1

end timestep


start timestep kper="1" kstp="104" mode="normal"

 UBDSV1 SAVING     FLOW-JA-FACE ON UNIT   1023 AT TIME STEP    104, STRESS PERIOD      1
 UBDSV06 SAVING              WEL IN MODEL MODEL1D_CYCLEF   PACKAGE MODEL1D_CYCLEF  CONNECTED TO MODEL MODEL1D_CYCLEF   PACKAGE WEL1             ON UNIT   1023 AT TIME STEP    104, STRESS PERIOD      1
 UBDSV06 SAVING              CHD IN MODEL MODEL1D_CYCLEF   PACKAGE MODEL1D_CYCLEF  CONNECTED TO MODEL MODEL1D_CYCLEF   PACKAGE CHD1             ON UNIT   1023 AT TIME STEP    104, STRESS PERIOD      1

 HEAD WILL BE SAVED ON UNIT 1024 AT END OF TIME STEP  104, STRESS PERIOD    1

end timestep


start timestep kper="1" kstp="105" mode="normal"

 UBDSV1 SAVING     FLOW-JA-FACE ON UNIT   1023 AT TIME STEP    105, STRESS PERIOD      1
 UBDSV06 SAVING              WEL IN MODEL MODEL1D_CYCLEF   PACKAGE MODEL1D_CYCLEF  CONNECTED TO MODEL MODEL1D_CYCLEF   PACKAGE WEL1             ON UNIT   1023 AT TIME STEP    105, STRESS PERIOD      1
 UBDSV06 SAVING              CHD IN MODEL MODEL1D_CYCLEF   PACKAGE MODEL1D_CYCLEF  CONNECTED TO MODEL MODEL1D_CYCLEF   PACKAGE CHD1             ON UNIT   1023 AT TIME STEP    105, STRESS PERIOD      1

 HEAD WILL BE SAVED ON UNIT 1024 AT END OF TIME STEP  105, STRESS PERIOD    1

end timestep


start timestep kper="1" kstp="106" mode="normal"

 UBDSV1 SAVING     FLOW-JA-FACE ON UNIT   1023 AT TIME STEP    106, STRESS PERIOD      1
 UBDSV06 SAVING              WEL IN MODEL MODEL1D_CYCLEF   PACKAGE MODEL1D_CYCLEF  CONNECTED TO MODEL MODEL1D_CYCLEF   PACKAGE WEL1             ON UNIT   1023 AT TIME STEP    106, STRESS PERIOD      1
 UBDSV06 SAVING              CHD IN MODEL MODEL1D_CYCLEF   PACKAGE MODEL1D_CYCLEF  CONNECTED TO MODEL MODEL1D_CYCLEF   PACKAGE CHD1             ON UNIT   1023 AT TIME STEP    106, STRESS PERIOD      1

 HEAD WILL BE SAVED ON UNIT 1024 AT END OF TIME STEP  106, STRESS PERIOD    1

end timestep


start timestep kper="1" kstp="107" mode="normal"

 UBDSV1 SAVING     FLOW-JA-FACE ON UNIT   1023 AT TIME STEP    107, STRESS PERIOD      1
 UBDSV06 SAVING              WEL IN MODEL MODEL1D_CYCLEF   PACKAGE MODEL1D_CYCLEF  CONNECTED TO MODEL MODEL1D_CYCLEF   PACKAGE WEL1             ON UNIT   1023 AT TIME STEP    107, STRESS PERIOD      1
 UBDSV06 SAVING              CHD IN MODEL MODEL1D_CYCLEF   PACKAGE MODEL1D_CYCLEF  CONNECTED TO MODEL MODEL1D_CYCLEF   PACKAGE CHD1             ON UNIT   1023 AT TIME STEP    107, STRESS PERIOD      1

 HEAD WILL BE SAVED ON UNIT 1024 AT END OF TIME STEP  107, STRESS PERIOD    1

end timestep


start timestep kper="1" kstp="108" mode="normal"

 UBDSV1 SAVING     FLOW-JA-FACE ON UNIT   1023 AT TIME STEP    108, STRESS PERIOD      1
 UBDSV06 SAVING              WEL IN MODEL MODEL1D_CYCLEF   PACKAGE MODEL1D_CYCLEF  CONNECTED TO MODEL MODEL1D_CYCLEF   PACKAGE WEL1             ON UNIT   1023 AT TIME STEP    108, STRESS PERIOD      1
 UBDSV06 SAVING              CHD IN MODEL MODEL1D_CYCLEF   PACKAGE MODEL1D_CYCLEF  CONNECTED TO MODEL MODEL1D_CYCLEF   PACKAGE CHD1             ON UNIT   1023 AT TIME STEP    108, STRESS PERIOD      1

 HEAD WILL BE SAVED ON UNIT 1024 AT END OF TIME STEP  108, STRESS PERIOD    1

end timestep


start timestep kper="1" kstp="109" mode="normal"

 UBDSV1 SAVING     FLOW-JA-FACE ON UNIT   1023 AT TIME STEP    109, STRESS PERIOD      1
 UBDSV06 SAVING              WEL IN MODEL MODEL1D_CYCLEF   PACKAGE MODEL1D_CYCLEF  CONNECTED TO MODEL MODEL1D_CYCLEF   PACKAGE WEL1             ON UNIT   1023 AT TIME STEP    109, STRESS PERIOD      1
 UBDSV06 SAVING              CHD IN MODEL MODEL1D_CYCLEF   PACKAGE MODEL1D_CYCLEF  CONNECTED TO MODEL MODEL1D_CYCLEF   PACKAGE CHD1             ON UNIT   1023 AT TIME STEP    109, STRESS PERIOD      1

 HEAD WILL BE SAVED ON UNIT 1024 AT END OF TIME STEP  109, STRESS PERIOD    1

end timestep


start timestep kper="1" kstp="110" mode="normal"

 UBDSV1 SAVING     FLOW-JA-FACE ON UNIT   1023 AT TIME STEP    110, STRESS PERIOD      1
 UBDSV06 SAVING              WEL IN MODEL MODEL1D_CYCLEF   PACKAGE MODEL1D_CYCLEF  CONNECTED TO MODEL MODEL1D_CYCLEF   PACKAGE WEL1             ON UNIT   1023 AT TIME STEP    110, STRESS PERIOD      1
 UBDSV06 SAVING              CHD IN MODEL MODEL1D_CYCLEF   PACKAGE MODEL1D_CYCLEF  CONNECTED TO MODEL MODEL1D_CYCLEF   PACKAGE CHD1             ON UNIT   1023 AT TIME STEP    110, STRESS PERIOD      1

 HEAD WILL BE SAVED ON UNIT 1024 AT END OF TIME STEP  110, STRESS PERIOD    1

end timestep


start timestep kper="1" kstp="111" mode="normal"

 UBDSV1 SAVING     FLOW-JA-FACE ON UNIT   1023 AT TIME STEP    111, STRESS PERIOD      1
 UBDSV06 SAVING              WEL IN MODEL MODEL1D_CYCLEF   PACKAGE MODEL1D_CYCLEF  CONNECTED TO MODEL MODEL1D_CYCLEF   PACKAGE WEL1             ON UNIT   1023 AT TIME STEP    111, STRESS PERIOD      1
 UBDSV06 SAVING              CHD IN MODEL MODEL1D_CYCLEF   PACKAGE MODEL1D_CYCLEF  CONNECTED TO MODEL MODEL1D_CYCLEF   PACKAGE CHD1             ON UNIT   1023 AT TIME STEP    111, STRESS PERIOD      1

 HEAD WILL BE SAVED ON UNIT 1024 AT END OF TIME STEP  111, STRESS PERIOD    1

end timestep


start timestep kper="1" kstp="112" mode="normal"

 UBDSV1 SAVING     FLOW-JA-FACE ON UNIT   1023 AT TIME STEP    112, STRESS PERIOD      1
 UBDSV06 SAVING              WEL IN MODEL MODEL1D_CYCLEF   PACKAGE MODEL1D_CYCLEF  CONNECTED TO MODEL MODEL1D_CYCLEF   PACKAGE WEL1             ON UNIT   1023 AT TIME STEP    112, STRESS PERIOD      1
 UBDSV06 SAVING              CHD IN MODEL MODEL1D_CYCLEF   PACKAGE MODEL1D_CYCLEF  CONNECTED TO MODEL MODEL1D_CYCLEF   PACKAGE CHD1             ON UNIT   1023 AT TIME STEP    112, STRESS PERIOD      1

 HEAD WILL BE SAVED ON UNIT 1024 AT END OF TIME STEP  112, STRESS PERIOD    1

end timestep


start timestep kper="1" kstp="113" mode="normal"

 UBDSV1 SAVING     FLOW-JA-FACE ON UNIT   1023 AT TIME STEP    113, STRESS PERIOD      1
 UBDSV06 SAVING              WEL IN MODEL MODEL1D_CYCLEF   PACKAGE MODEL1D_CYCLEF  CONNECTED TO MODEL MODEL1D_CYCLEF   PACKAGE WEL1             ON UNIT   1023 AT TIME STEP    113, STRESS PERIOD      1
 UBDSV06 SAVING              CHD IN MODEL MODEL1D_CYCLEF   PACKAGE MODEL1D_CYCLEF  CONNECTED TO MODEL MODEL1D_CYCLEF   PACKAGE CHD1             ON UNIT   1023 AT TIME STEP    113, STRESS PERIOD      1

 HEAD WILL BE SAVED ON UNIT 1024 AT END OF TIME STEP  113, STRESS PERIOD    1

end timestep


start timestep kper="1" kstp="114" mode="normal"

 UBDSV1 SAVING     FLOW-JA-FACE ON UNIT   1023 AT TIME STEP    114, STRESS PERIOD      1
 UBDSV06 SAVING              WEL IN MODEL MODEL1D_CYCLEF   PACKAGE MODEL1D_CYCLEF  CONNECTED TO MODEL MODEL1D_CYCLEF   PACKAGE WEL1             ON UNIT   1023 AT TIME STEP    114, STRESS PERIOD      1
 UBDSV06 SAVING              CHD IN MODEL MODEL1D_CYCLEF   PACKAGE MODEL1D_CYCLEF  CONNECTED TO MODEL MODEL1D_CYCLEF   PACKAGE CHD1             ON UNIT   1023 AT TIME STEP    114, STRESS PERIOD      1

 HEAD WILL BE SAVED ON UNIT 1024 AT END OF TIME STEP  114, STRESS PERIOD    1

end timestep


start timestep kper="1" kstp="115" mode="normal"

 UBDSV1 SAVING     FLOW-JA-FACE ON UNIT   1023 AT TIME STEP    115, STRESS PERIOD      1
 UBDSV06 SAVING              WEL IN MODEL MODEL1D_CYCLEF   PACKAGE MODEL1D_CYCLEF  CONNECTED TO MODEL MODEL1D_CYCLEF   PACKAGE WEL1             ON UNIT   1023 AT TIME STEP    115, STRESS PERIOD      1
 UBDSV06 SAVING              CHD IN MODEL MODEL1D_CYCLEF   PACKAGE MODEL1D_CYCLEF  CONNECTED TO MODEL MODEL1D_CYCLEF   PACKAGE CHD1             ON UNIT   1023 AT TIME STEP    115, STRESS PERIOD      1

 HEAD WILL BE SAVED ON UNIT 1024 AT END OF TIME STEP  115, STRESS PERIOD    1

end timestep


start timestep kper="1" kstp="116" mode="normal"

 UBDSV1 SAVING     FLOW-JA-FACE ON UNIT   1023 AT TIME STEP    116, STRESS PERIOD      1
 UBDSV06 SAVING              WEL IN MODEL MODEL1D_CYCLEF   PACKAGE MODEL1D_CYCLEF  CONNECTED TO MODEL MODEL1D_CYCLEF   PACKAGE WEL1             ON UNIT   1023 AT TIME STEP    116, STRESS PERIOD      1
 UBDSV06 SAVING              CHD IN MODEL MODEL1D_CYCLEF   PACKAGE MODEL1D_CYCLEF  CONNECTED TO MODEL MODEL1D_CYCLEF   PACKAGE CHD1             ON UNIT   1023 AT TIME STEP    116, STRESS PERIOD      1

 HEAD WILL BE SAVED ON UNIT 1024 AT END OF TIME STEP  116, STRESS PERIOD    1

end timestep


start timestep kper="1" kstp="117" mode="normal"

[...]
 UBDSV06 SAVING              CHD IN MODEL MODEL1D_CYCLEF   PACKAGE MODEL1D_CYCLEF  CONNECTED TO MODEL MODEL1D_CYCLEF   PACKAGE CHD1             ON UNIT   1023 AT TIME STEP    972, STRESS PERIOD      2

 HEAD WILL BE SAVED ON UNIT 1024 AT END OF TIME STEP  972, STRESS PERIOD    2

end timestep


start timestep kper="2" kstp="973" mode="normal"

 UBDSV1 SAVING     FLOW-JA-FACE ON UNIT   1023 AT TIME STEP    973, STRESS PERIOD      2
 UBDSV06 SAVING              WEL IN MODEL MODEL1D_CYCLEF   PACKAGE MODEL1D_CYCLEF  CONNECTED TO MODEL MODEL1D_CYCLEF   PACKAGE WEL1             ON UNIT   1023 AT TIME STEP    973, STRESS PERIOD      2
 UBDSV06 SAVING              CHD IN MODEL MODEL1D_CYCLEF   PACKAGE MODEL1D_CYCLEF  CONNECTED TO MODEL MODEL1D_CYCLEF   PACKAGE CHD1             ON UNIT   1023 AT TIME STEP    973, STRESS PERIOD      2

 HEAD WILL BE SAVED ON UNIT 1024 AT END OF TIME STEP  973, STRESS PERIOD    2

end timestep


start timestep kper="2" kstp="974" mode="normal"

 UBDSV1 SAVING     FLOW-JA-FACE ON UNIT   1023 AT TIME STEP    974, STRESS PERIOD      2
 UBDSV06 SAVING              WEL IN MODEL MODEL1D_CYCLEF   PACKAGE MODEL1D_CYCLEF  CONNECTED TO MODEL MODEL1D_CYCLEF   PACKAGE WEL1             ON UNIT   1023 AT TIME STEP    974, STRESS PERIOD      2
 UBDSV06 SAVING              CHD IN MODEL MODEL1D_CYCLEF   PACKAGE MODEL1D_CYCLEF  CONNECTED TO MODEL MODEL1D_CYCLEF   PACKAGE CHD1             ON UNIT   1023 AT TIME STEP    974, STRESS PERIOD      2

 HEAD WILL BE SAVED ON UNIT 1024 AT END OF TIME STEP  974, STRESS PERIOD    2

end timestep


start timestep kper="2" kstp="975" mode="normal"

 UBDSV1 SAVING     FLOW-JA-FACE ON UNIT   1023 AT TIME STEP    975, STRESS PERIOD      2
 UBDSV06 SAVING              WEL IN MODEL MODEL1D_CYCLEF   PACKAGE MODEL1D_CYCLEF  CONNECTED TO MODEL MODEL1D_CYCLEF   PACKAGE WEL1             ON UNIT   1023 AT TIME STEP    975, STRESS PERIOD      2
 UBDSV06 SAVING              CHD IN MODEL MODEL1D_CYCLEF   PACKAGE MODEL1D_CYCLEF  CONNECTED TO MODEL MODEL1D_CYCLEF   PACKAGE CHD1             ON UNIT   1023 AT TIME STEP    975, STRESS PERIOD      2

 HEAD WILL BE SAVED ON UNIT 1024 AT END OF TIME STEP  975, STRESS PERIOD    2

end timestep


start timestep kper="2" kstp="976" mode="normal"

 UBDSV1 SAVING     FLOW-JA-FACE ON UNIT   1023 AT TIME STEP    976, STRESS PERIOD      2
 UBDSV06 SAVING              WEL IN MODEL MODEL1D_CYCLEF   PACKAGE MODEL1D_CYCLEF  CONNECTED TO MODEL MODEL1D_CYCLEF   PACKAGE WEL1             ON UNIT   1023 AT TIME STEP    976, STRESS PERIOD      2
 UBDSV06 SAVING              CHD IN MODEL MODEL1D_CYCLEF   PACKAGE MODEL1D_CYCLEF  CONNECTED TO MODEL MODEL1D_CYCLEF   PACKAGE CHD1             ON UNIT   1023 AT TIME STEP    976, STRESS PERIOD      2

 HEAD WILL BE SAVED ON UNIT 1024 AT END OF TIME STEP  976, STRESS PERIOD    2

end timestep


start timestep kper="2" kstp="977" mode="normal"

 UBDSV1 SAVING     FLOW-JA-FACE ON UNIT   1023 AT TIME STEP    977, STRESS PERIOD      2
 UBDSV06 SAVING              WEL IN MODEL MODEL1D_CYCLEF   PACKAGE MODEL1D_CYCLEF  CONNECTED TO MODEL MODEL1D_CYCLEF   PACKAGE WEL1             ON UNIT   1023 AT TIME STEP    977, STRESS PERIOD      2
 UBDSV06 SAVING              CHD IN MODEL MODEL1D_CYCLEF   PACKAGE MODEL1D_CYCLEF  CONNECTED TO MODEL MODEL1D_CYCLEF   PACKAGE CHD1             ON UNIT   1023 AT TIME STEP    977, STRESS PERIOD      2

 HEAD WILL BE SAVED ON UNIT 1024 AT END OF TIME STEP  977, STRESS PERIOD    2

end timestep


start timestep kper="2" kstp="978" mode="normal"

 UBDSV1 SAVING     FLOW-JA-FACE ON UNIT   1023 AT TIME STEP    978, STRESS PERIOD      2
 UBDSV06 SAVING              WEL IN MODEL MODEL1D_CYCLEF   PACKAGE MODEL1D_CYCLEF  CONNECTED TO MODEL MODEL1D_CYCLEF   PACKAGE WEL1             ON UNIT   1023 AT TIME STEP    978, STRESS PERIOD      2
 UBDSV06 SAVING              CHD IN MODEL MODEL1D_CYCLEF   PACKAGE MODEL1D_CYCLEF  CONNECTED TO MODEL MODEL1D_CYCLEF   PACKAGE CHD1             ON UNIT   1023 AT TIME STEP    978, STRESS PERIOD      2

 HEAD WILL BE SAVED ON UNIT 1024 AT END OF TIME STEP  978, STRESS PERIOD    2

end timestep


start timestep kper="2" kstp="979" mode="normal"

 UBDSV1 SAVING     FLOW-JA-FACE ON UNIT   1023 AT TIME STEP    979, STRESS PERIOD      2
 UBDSV06 SAVING              WEL IN MODEL MODEL1D_CYCLEF   PACKAGE MODEL1D_CYCLEF  CONNECTED TO MODEL MODEL1D_CYCLEF   PACKAGE WEL1             ON UNIT   1023 AT TIME STEP    979, STRESS PERIOD      2
 UBDSV06 SAVING              CHD IN MODEL MODEL1D_CYCLEF   PACKAGE MODEL1D_CYCLEF  CONNECTED TO MODEL MODEL1D_CYCLEF   PACKAGE CHD1             ON UNIT   1023 AT TIME STEP    979, STRESS PERIOD      2

 HEAD WILL BE SAVED ON UNIT 1024 AT END OF TIME STEP  979, STRESS PERIOD    2

end timestep


start timestep kper="2" kstp="980" mode="normal"

 UBDSV1 SAVING     FLOW-JA-FACE ON UNIT   1023 AT TIME STEP    980, STRESS PERIOD      2
 UBDSV06 SAVING              WEL IN MODEL MODEL1D_CYCLEF   PACKAGE MODEL1D_CYCLEF  CONNECTED TO MODEL MODEL1D_CYCLEF   PACKAGE WEL1             ON UNIT   1023 AT TIME STEP    980, STRESS PERIOD      2
 UBDSV06 SAVING              CHD IN MODEL MODEL1D_CYCLEF   PACKAGE MODEL1D_CYCLEF  CONNECTED TO MODEL MODEL1D_CYCLEF   PACKAGE CHD1             ON UNIT   1023 AT TIME STEP    980, STRESS PERIOD      2

 HEAD WILL BE SAVED ON UNIT 1024 AT END OF TIME STEP  980, STRESS PERIOD    2

end timestep


start timestep kper="2" kstp="981" mode="normal"

 UBDSV1 SAVING     FLOW-JA-FACE ON UNIT   1023 AT TIME STEP    981, STRESS PERIOD      2
 UBDSV06 SAVING              WEL IN MODEL MODEL1D_CYCLEF   PACKAGE MODEL1D_CYCLEF  CONNECTED TO MODEL MODEL1D_CYCLEF   PACKAGE WEL1             ON UNIT   1023 AT TIME STEP    981, STRESS PERIOD      2
 UBDSV06 SAVING              CHD IN MODEL MODEL1D_CYCLEF   PACKAGE MODEL1D_CYCLEF  CONNECTED TO MODEL MODEL1D_CYCLEF   PACKAGE CHD1             ON UNIT   1023 AT TIME STEP    981, STRESS PERIOD      2

 HEAD WILL BE SAVED ON UNIT 1024 AT END OF TIME STEP  981, STRESS PERIOD    2

end timestep


start timestep kper="2" kstp="982" mode="normal"

 UBDSV1 SAVING     FLOW-JA-FACE ON UNIT   1023 AT TIME STEP    982, STRESS PERIOD      2
 UBDSV06 SAVING              WEL IN MODEL MODEL1D_CYCLEF   PACKAGE MODEL1D_CYCLEF  CONNECTED TO MODEL MODEL1D_CYCLEF   PACKAGE WEL1             ON UNIT   1023 AT TIME STEP    982, STRESS PERIOD      2
 UBDSV06 SAVING              CHD IN MODEL MODEL1D_CYCLEF   PACKAGE MODEL1D_CYCLEF  CONNECTED TO MODEL MODEL1D_CYCLEF   PACKAGE CHD1             ON UNIT   1023 AT TIME STEP    982, STRESS PERIOD      2

 HEAD WILL BE SAVED ON UNIT 1024 AT END OF TIME STEP  982, STRESS PERIOD    2

end timestep


start timestep kper="2" kstp="983" mode="normal"

 UBDSV1 SAVING     FLOW-JA-FACE ON UNIT   1023 AT TIME STEP    983, STRESS PERIOD      2
 UBDSV06 SAVING              WEL IN MODEL MODEL1D_CYCLEF   PACKAGE MODEL1D_CYCLEF  CONNECTED TO MODEL MODEL1D_CYCLEF   PACKAGE WEL1             ON UNIT   1023 AT TIME STEP    983, STRESS PERIOD      2
 UBDSV06 SAVING              CHD IN MODEL MODEL1D_CYCLEF   PACKAGE MODEL1D_CYCLEF  CONNECTED TO MODEL MODEL1D_CYCLEF   PACKAGE CHD1             ON UNIT   1023 AT TIME STEP    983, STRESS PERIOD      2

 HEAD WILL BE SAVED ON UNIT 1024 AT END OF TIME STEP  983, STRESS PERIOD    2

end timestep


start timestep kper="2" kstp="984" mode="normal"

 UBDSV1 SAVING     FLOW-JA-FACE ON UNIT   1023 AT TIME STEP    984, STRESS PERIOD      2
 UBDSV06 SAVING              WEL IN MODEL MODEL1D_CYCLEF   PACKAGE MODEL1D_CYCLEF  CONNECTED TO MODEL MODEL1D_CYCLEF   PACKAGE WEL1             ON UNIT   1023 AT TIME STEP    984, STRESS PERIOD      2
 UBDSV06 SAVING              CHD IN MODEL MODEL1D_CYCLEF   PACKAGE MODEL1D_CYCLEF  CONNECTED TO MODEL MODEL1D_CYCLEF   PACKAGE CHD1             ON UNIT   1023 AT TIME STEP    984, STRESS PERIOD      2

 HEAD WILL BE SAVED ON UNIT 1024 AT END OF TIME STEP  984, STRESS PERIOD    2

end timestep


start timestep kper="2" kstp="985" mode="normal"

 UBDSV1 SAVING     FLOW-JA-FACE ON UNIT   1023 AT TIME STEP    985, STRESS PERIOD      2
 UBDSV06 SAVING              WEL IN MODEL MODEL1D_CYCLEF   PACKAGE MODEL1D_CYCLEF  CONNECTED TO MODEL MODEL1D_CYCLEF   PACKAGE WEL1             ON UNIT   1023 AT TIME STEP    985, STRESS PERIOD      2
 UBDSV06 SAVING              CHD IN MODEL MODEL1D_CYCLEF   PACKAGE MODEL1D_CYCLEF  CONNECTED TO MODEL MODEL1D_CYCLEF   PACKAGE CHD1             ON UNIT   1023 AT TIME STEP    985, STRESS PERIOD      2

 HEAD WILL BE SAVED ON UNIT 1024 AT END OF TIME STEP  985, STRESS PERIOD    2

end timestep


start timestep kper="2" kstp="986" mode="normal"

 UBDSV1 SAVING     FLOW-JA-FACE ON UNIT   1023 AT TIME STEP    986, STRESS PERIOD      2
 UBDSV06 SAVING              WEL IN MODEL MODEL1D_CYCLEF   PACKAGE MODEL1D_CYCLEF  CONNECTED TO MODEL MODEL1D_CYCLEF   PACKAGE WEL1             ON UNIT   1023 AT TIME STEP    986, STRESS PERIOD      2
 UBDSV06 SAVING              CHD IN MODEL MODEL1D_CYCLEF   PACKAGE MODEL1D_CYCLEF  CONNECTED TO MODEL MODEL1D_CYCLEF   PACKAGE CHD1             ON UNIT   1023 AT TIME STEP    986, STRESS PERIOD      2

 HEAD WILL BE SAVED ON UNIT 1024 AT END OF TIME STEP  986, STRESS PERIOD    2

end timestep


start timestep kper="2" kstp="987" mode="normal"

 UBDSV1 SAVING     FLOW-JA-FACE ON UNIT   1023 AT TIME STEP    987, STRESS PERIOD      2
 UBDSV06 SAVING              WEL IN MODEL MODEL1D_CYCLEF   PACKAGE MODEL1D_CYCLEF  CONNECTED TO MODEL MODEL1D_CYCLEF   PACKAGE WEL1             ON UNIT   1023 AT TIME STEP    987, STRESS PERIOD      2
 UBDSV06 SAVING              CHD IN MODEL MODEL1D_CYCLEF   PACKAGE MODEL1D_CYCLEF  CONNECTED TO MODEL MODEL1D_CYCLEF   PACKAGE CHD1             ON UNIT   1023 AT TIME STEP    987, STRESS PERIOD      2

 HEAD WILL BE SAVED ON UNIT 1024 AT END OF TIME STEP  987, STRESS PERIOD    2

end timestep


start timestep kper="2" kstp="988" mode="normal"

 UBDSV1 SAVING     FLOW-JA-FACE ON UNIT   1023 AT TIME STEP    988, STRESS PERIOD      2
 UBDSV06 SAVING              WEL IN MODEL MODEL1D_CYCLEF   PACKAGE MODEL1D_CYCLEF  CONNECTED TO MODEL MODEL1D_CYCLEF   PACKAGE WEL1             ON UNIT   1023 AT TIME STEP    988, STRESS PERIOD      2
 UBDSV06 SAVING              CHD IN MODEL MODEL1D_CYCLEF   PACKAGE MODEL1D_CYCLEF  CONNECTED TO MODEL MODEL1D_CYCLEF   PACKAGE CHD1             ON UNIT   1023 AT TIME STEP    988, STRESS PERIOD      2

 HEAD WILL BE SAVED ON UNIT 1024 AT END OF TIME STEP  988, STRESS PERIOD    2

end timestep


start timestep kper="2" kstp="989" mode="normal"

 UBDSV1 SAVING     FLOW-JA-FACE ON UNIT   1023 AT TIME STEP    989, STRESS PERIOD      2
 UBDSV06 SAVING              WEL IN MODEL MODEL1D_CYCLEF   PACKAGE MODEL1D_CYCLEF  CONNECTED TO MODEL MODEL1D_CYCLEF   PACKAGE WEL1             ON UNIT   1023 AT TIME STEP    989, STRESS PERIOD      2
 UBDSV06 SAVING              CHD IN MODEL MODEL1D_CYCLEF   PACKAGE MODEL1D_CYCLEF  CONNECTED TO MODEL MODEL1D_CYCLEF   PACKAGE CHD1             ON UNIT   1023 AT TIME STEP    989, STRESS PERIOD      2

 HEAD WILL BE SAVED ON UNIT 1024 AT END OF TIME STEP  989, STRESS PERIOD    2

end timestep


start timestep kper="2" kstp="990" mode="normal"

 UBDSV1 SAVING     FLOW-JA-FACE ON UNIT   1023 AT TIME STEP    990, STRESS PERIOD      2
 UBDSV06 SAVING              WEL IN MODEL MODEL1D_CYCLEF   PACKAGE MODEL1D_CYCLEF  CONNECTED TO MODEL MODEL1D_CYCLEF   PACKAGE WEL1             ON UNIT   1023 AT TIME STEP    990, STRESS PERIOD      2
 UBDSV06 SAVING              CHD IN MODEL MODEL1D_CYCLEF   PACKAGE MODEL1D_CYCLEF  CONNECTED TO MODEL MODEL1D_CYCLEF   PACKAGE CHD1             ON UNIT   1023 AT TIME STEP    990, STRESS PERIOD      2

 HEAD WILL BE SAVED ON UNIT 1024 AT END OF TIME STEP  990, STRESS PERIOD    2

end timestep


start timestep kper="2" kstp="991" mode="normal"

 UBDSV1 SAVING     FLOW-JA-FACE ON UNIT   1023 AT TIME STEP    991, STRESS PERIOD      2
 UBDSV06 SAVING              WEL IN MODEL MODEL1D_CYCLEF   PACKAGE MODEL1D_CYCLEF  CONNECTED TO MODEL MODEL1D_CYCLEF   PACKAGE WEL1             ON UNIT   1023 AT TIME STEP    991, STRESS PERIOD      2
 UBDSV06 SAVING              CHD IN MODEL MODEL1D_CYCLEF   PACKAGE MODEL1D_CYCLEF  CONNECTED TO MODEL MODEL1D_CYCLEF   PACKAGE CHD1             ON UNIT   1023 AT TIME STEP    991, STRESS PERIOD      2

 HEAD WILL BE SAVED ON UNIT 1024 AT END OF TIME STEP  991, STRESS PERIOD    2

end timestep


start timestep kper="2" kstp="992" mode="normal"

 UBDSV1 SAVING     FLOW-JA-FACE ON UNIT   1023 AT TIME STEP    992, STRESS PERIOD      2
 UBDSV06 SAVING              WEL IN MODEL MODEL1D_CYCLEF   PACKAGE MODEL1D_CYCLEF  CONNECTED TO MODEL MODEL1D_CYCLEF   PACKAGE WEL1             ON UNIT   1023 AT TIME STEP    992, STRESS PERIOD      2
 UBDSV06 SAVING              CHD IN MODEL MODEL1D_CYCLEF   PACKAGE MODEL1D_CYCLEF  CONNECTED TO MODEL MODEL1D_CYCLEF   PACKAGE CHD1             ON UNIT   1023 AT TIME STEP    992, STRESS PERIOD      2

 HEAD WILL BE SAVED ON UNIT 1024 AT END OF TIME STEP  992, STRESS PERIOD    2

end timestep


start timestep kper="2" kstp="993" mode="normal"

 UBDSV1 SAVING     FLOW-JA-FACE ON UNIT   1023 AT TIME STEP    993, STRESS PERIOD      2
 UBDSV06 SAVING              WEL IN MODEL MODEL1D_CYCLEF   PACKAGE MODEL1D_CYCLEF  CONNECTED TO MODEL MODEL1D_CYCLEF   PACKAGE WEL1             ON UNIT   1023 AT TIME STEP    993, STRESS PERIOD      2
 UBDSV06 SAVING              CHD IN MODEL MODEL1D_CYCLEF   PACKAGE MODEL1D_CYCLEF  CONNECTED TO MODEL MODEL1D_CYCLEF   PACKAGE CHD1             ON UNIT   1023 AT TIME STEP    993, STRESS PERIOD      2

 HEAD WILL BE SAVED ON UNIT 1024 AT END OF TIME STEP  993, STRESS PERIOD    2

end timestep


start timestep kper="2" kstp="994" mode="normal"

 UBDSV1 SAVING     FLOW-JA-FACE ON UNIT   1023 AT TIME STEP    994, STRESS PERIOD      2
 UBDSV06 SAVING              WEL IN MODEL MODEL1D_CYCLEF   PACKAGE MODEL1D_CYCLEF  CONNECTED TO MODEL MODEL1D_CYCLEF   PACKAGE WEL1             ON UNIT   1023 AT TIME STEP    994, STRESS PERIOD      2
 UBDSV06 SAVING              CHD IN MODEL MODEL1D_CYCLEF   PACKAGE MODEL1D_CYCLEF  CONNECTED TO MODEL MODEL1D_CYCLEF   PACKAGE CHD1             ON UNIT   1023 AT TIME STEP    994, STRESS PERIOD      2

 HEAD WILL BE SAVED ON UNIT 1024 AT END OF TIME STEP  994, STRESS PERIOD    2

end timestep


start timestep kper="2" kstp="995" mode="normal"

 UBDSV1 SAVING     FLOW-JA-FACE ON UNIT   1023 AT TIME STEP    995, STRESS PERIOD      2
 UBDSV06 SAVING              WEL IN MODEL MODEL1D_CYCLEF   PACKAGE MODEL1D_CYCLEF  CONNECTED TO MODEL MODEL1D_CYCLEF   PACKAGE WEL1             ON UNIT   1023 AT TIME STEP    995, STRESS PERIOD      2
 UBDSV06 SAVING              CHD IN MODEL MODEL1D_CYCLEF   PACKAGE MODEL1D_CYCLEF  CONNECTED TO MODEL MODEL1D_CYCLEF   PACKAGE CHD1             ON UNIT   1023 AT TIME STEP    995, STRESS PERIOD      2

 HEAD WILL BE SAVED ON UNIT 1024 AT END OF TIME STEP  995, STRESS PERIOD    2

end timestep


start timestep kper="2" kstp="996" mode="normal"

 UBDSV1 SAVING     FLOW-JA-FACE ON UNIT   1023 AT TIME STEP    996, STRESS PERIOD      2
 UBDSV06 SAVING              WEL IN MODEL MODEL1D_CYCLEF   PACKAGE MODEL1D_CYCLEF  CONNECTED TO MODEL MODEL1D_CYCLEF   PACKAGE WEL1             ON UNIT   1023 AT TIME STEP    996, STRESS PERIOD      2
 UBDSV06 SAVING              CHD IN MODEL MODEL1D_CYCLEF   PACKAGE MODEL1D_CYCLEF  CONNECTED TO MODEL MODEL1D_CYCLEF   PACKAGE CHD1             ON UNIT   1023 AT TIME STEP    996, STRESS PERIOD      2

 HEAD WILL BE SAVED ON UNIT 1024 AT END OF TIME STEP  996, STRESS PERIOD    2

end timestep


start timestep kper="2" kstp="997" mode="normal"

 UBDSV1 SAVING     FLOW-JA-FACE ON UNIT   1023 AT TIME STEP    997, STRESS PERIOD      2
 UBDSV06 SAVING              WEL IN MODEL MODEL1D_CYCLEF   PACKAGE MODEL1D_CYCLEF  CONNECTED TO MODEL MODEL1D_CYCLEF   PACKAGE WEL1             ON UNIT   1023 AT TIME STEP    997, STRESS PERIOD      2
 UBDSV06 SAVING              CHD IN MODEL MODEL1D_CYCLEF   PACKAGE MODEL1D_CYCLEF  CONNECTED TO MODEL MODEL1D_CYCLEF   PACKAGE CHD1             ON UNIT   1023 AT TIME STEP    997, STRESS PERIOD      2

 HEAD WILL BE SAVED ON UNIT 1024 AT END OF TIME STEP  997, STRESS PERIOD    2

end timestep


start timestep kper="2" kstp="998" mode="normal"

 UBDSV1 SAVING     FLOW-JA-FACE ON UNIT   1023 AT TIME STEP    998, STRESS PERIOD      2
 UBDSV06 SAVING              WEL IN MODEL MODEL1D_CYCLEF   PACKAGE MODEL1D_CYCLEF  CONNECTED TO MODEL MODEL1D_CYCLEF   PACKAGE WEL1             ON UNIT   1023 AT TIME STEP    998, STRESS PERIOD      2
 UBDSV06 SAVING              CHD IN MODEL MODEL1D_CYCLEF   PACKAGE MODEL1D_CYCLEF  CONNECTED TO MODEL MODEL1D_CYCLEF   PACKAGE CHD1             ON UNIT   1023 AT TIME STEP    998, STRESS PERIOD      2

 HEAD WILL BE SAVED ON UNIT 1024 AT END OF TIME STEP  998, STRESS PERIOD    2

end timestep


start timestep kper="2" kstp="999" mode="normal"

 UBDSV1 SAVING     FLOW-JA-FACE ON UNIT   1023 AT TIME STEP    999, STRESS PERIOD      2
 UBDSV06 SAVING              WEL IN MODEL MODEL1D_CYCLEF   PACKAGE MODEL1D_CYCLEF  CONNECTED TO MODEL MODEL1D_CYCLEF   PACKAGE WEL1             ON UNIT   1023 AT TIME STEP    999, STRESS PERIOD      2
 UBDSV06 SAVING              CHD IN MODEL MODEL1D_CYCLEF   PACKAGE MODEL1D_CYCLEF  CONNECTED TO MODEL MODEL1D_CYCLEF   PACKAGE CHD1             ON UNIT   1023 AT TIME STEP    999, STRESS PERIOD      2

 HEAD WILL BE SAVED ON UNIT 1024 AT END OF TIME STEP  999, STRESS PERIOD    2

end timestep


start timestep kper="2" kstp="1000" mode="normal"

 UBDSV1 SAVING     FLOW-JA-FACE ON UNIT   1023 AT TIME STEP   1000, STRESS PERIOD      2
 UBDSV06 SAVING              WEL IN MODEL MODEL1D_CYCLEF   PACKAGE MODEL1D_CYCLEF  CONNECTED TO MODEL MODEL1D_CYCLEF   PACKAGE WEL1             ON UNIT   1023 AT TIME STEP   1000, STRESS PERIOD      2
 UBDSV06 SAVING              CHD IN MODEL MODEL1D_CYCLEF   PACKAGE MODEL1D_CYCLEF  CONNECTED TO MODEL MODEL1D_CYCLEF   PACKAGE CHD1             ON UNIT   1023 AT TIME STEP   1000, STRESS PERIOD      2

 HEAD WILL BE SAVED ON UNIT 1024 AT END OF TIME STEP 1000, STRESS PERIOD    2


  VOLUME BUDGET FOR ENTIRE MODEL AT END OF TIME STEP 1000, STRESS PERIOD   2
  ---------------------------------------------------------------------------------------------------

     CUMULATIVE VOLUME      L**3       RATES FOR THIS TIME STEP      L**3/T          PACKAGE NAME    
     ------------------                 ------------------------                     ----------------

           IN:                                      IN:
           ---                                      ---
                 WEL =         500.0000                   WEL =           0.0000     WEL1                             
                 CHD =         500.0000                   CHD =           5.0000     CHD1                             

            TOTAL IN =        1000.0000              TOTAL IN =           5.0000

          OUT:                                     OUT:
          ----                                     ----
                 WEL =         500.0000                   WEL =           5.0000     WEL1                             
                 CHD =         500.0000                   CHD =           0.0000     CHD1                             

           TOTAL OUT =        1000.0000             TOTAL OUT =           5.0000

            IN - OUT =      -5.3433E-11              IN - OUT =      -4.5475E-13

 PERCENT DISCREPANCY =          -0.00     PERCENT DISCREPANCY =          -0.00




         TIME SUMMARY AT END OF TIME STEP 1000 IN STRESS PERIOD    2
                    SECONDS     MINUTES      HOURS       DAYS        YEARS
                    -----------------------------------------------------------
   TIME STEP LENGTH  8640.0      144.00      2.4000     0.10000     2.73785E-04
 STRESS PERIOD TIME 8.64000E+06 1.44000E+05  2400.0      100.00     0.27379    
         TOTAL TIME 1.72800E+07 2.88000E+05  4800.0      200.00     0.54757    


end timestep

